*SPEF "ieee 1481-1999"
*DESIGN "user_project_wrapper"
*DATE "11:11:11 Fri 11 11, 1111"
*VENDOR "OpenRCX"
*PROGRAM "Parallel Extraction"
*VERSION "1.0"
*DESIGN_FLOW "NAME_SCOPE LOCAL" "PIN_CAP NONE"
*DIVIDER /
*DELIMITER :
*BUS_DELIMITER []
*T_UNIT 1 NS
*C_UNIT 1 PF
*R_UNIT 1 OHM
*L_UNIT 1 HENRY

*NAME_MAP
*1 io_in[0]
*2 io_in[10]
*3 io_in[11]
*4 io_in[12]
*5 io_in[13]
*6 io_in[14]
*7 io_in[15]
*8 io_in[16]
*9 io_in[17]
*10 io_in[18]
*11 io_in[19]
*12 io_in[1]
*13 io_in[20]
*14 io_in[21]
*15 io_in[22]
*16 io_in[23]
*17 io_in[24]
*18 io_in[25]
*19 io_in[26]
*20 io_in[27]
*21 io_in[28]
*22 io_in[29]
*23 io_in[2]
*24 io_in[30]
*25 io_in[31]
*26 io_in[32]
*27 io_in[33]
*28 io_in[34]
*29 io_in[35]
*30 io_in[36]
*31 io_in[37]
*32 io_in[3]
*33 io_in[4]
*34 io_in[5]
*35 io_in[6]
*36 io_in[7]
*37 io_in[8]
*38 io_in[9]
*39 io_oeb[0]
*40 io_oeb[10]
*41 io_oeb[11]
*42 io_oeb[12]
*43 io_oeb[13]
*44 io_oeb[14]
*45 io_oeb[15]
*46 io_oeb[16]
*47 io_oeb[17]
*48 io_oeb[18]
*49 io_oeb[19]
*50 io_oeb[1]
*51 io_oeb[20]
*52 io_oeb[21]
*53 io_oeb[22]
*54 io_oeb[23]
*55 io_oeb[24]
*56 io_oeb[25]
*57 io_oeb[26]
*58 io_oeb[27]
*59 io_oeb[28]
*60 io_oeb[29]
*61 io_oeb[2]
*62 io_oeb[30]
*63 io_oeb[31]
*64 io_oeb[32]
*65 io_oeb[33]
*66 io_oeb[34]
*67 io_oeb[35]
*68 io_oeb[36]
*69 io_oeb[37]
*70 io_oeb[3]
*71 io_oeb[4]
*72 io_oeb[5]
*73 io_oeb[6]
*74 io_oeb[7]
*75 io_oeb[8]
*76 io_oeb[9]
*77 io_out[0]
*78 io_out[10]
*79 io_out[11]
*80 io_out[12]
*81 io_out[13]
*82 io_out[14]
*83 io_out[15]
*84 io_out[16]
*85 io_out[17]
*86 io_out[18]
*87 io_out[19]
*88 io_out[1]
*89 io_out[20]
*90 io_out[21]
*91 io_out[22]
*92 io_out[23]
*93 io_out[24]
*94 io_out[25]
*95 io_out[26]
*96 io_out[27]
*97 io_out[28]
*98 io_out[29]
*99 io_out[2]
*100 io_out[30]
*101 io_out[31]
*102 io_out[32]
*103 io_out[33]
*104 io_out[34]
*105 io_out[35]
*106 io_out[36]
*107 io_out[37]
*108 io_out[3]
*109 io_out[4]
*110 io_out[5]
*111 io_out[6]
*112 io_out[7]
*113 io_out[8]
*114 io_out[9]
*115 la_data_in[0]
*116 la_data_in[10]
*117 la_data_in[11]
*118 la_data_in[12]
*119 la_data_in[13]
*120 la_data_in[14]
*121 la_data_in[15]
*122 la_data_in[16]
*123 la_data_in[17]
*124 la_data_in[18]
*125 la_data_in[19]
*126 la_data_in[1]
*127 la_data_in[20]
*128 la_data_in[21]
*129 la_data_in[22]
*130 la_data_in[23]
*131 la_data_in[24]
*132 la_data_in[25]
*133 la_data_in[26]
*134 la_data_in[27]
*135 la_data_in[28]
*136 la_data_in[29]
*137 la_data_in[2]
*138 la_data_in[30]
*139 la_data_in[31]
*140 la_data_in[32]
*141 la_data_in[33]
*142 la_data_in[34]
*143 la_data_in[35]
*144 la_data_in[36]
*145 la_data_in[37]
*146 la_data_in[38]
*147 la_data_in[39]
*148 la_data_in[3]
*149 la_data_in[40]
*150 la_data_in[41]
*151 la_data_in[42]
*152 la_data_in[43]
*153 la_data_in[44]
*154 la_data_in[45]
*155 la_data_in[46]
*156 la_data_in[47]
*157 la_data_in[48]
*158 la_data_in[49]
*159 la_data_in[4]
*160 la_data_in[50]
*161 la_data_in[51]
*162 la_data_in[52]
*163 la_data_in[53]
*164 la_data_in[54]
*165 la_data_in[55]
*166 la_data_in[56]
*167 la_data_in[57]
*168 la_data_in[58]
*169 la_data_in[59]
*170 la_data_in[5]
*171 la_data_in[60]
*172 la_data_in[61]
*173 la_data_in[62]
*174 la_data_in[63]
*175 la_data_in[6]
*176 la_data_in[7]
*177 la_data_in[8]
*178 la_data_in[9]
*179 la_data_out[0]
*180 la_data_out[10]
*181 la_data_out[11]
*182 la_data_out[12]
*183 la_data_out[13]
*184 la_data_out[14]
*185 la_data_out[15]
*186 la_data_out[16]
*187 la_data_out[17]
*188 la_data_out[18]
*189 la_data_out[19]
*190 la_data_out[1]
*191 la_data_out[20]
*192 la_data_out[21]
*193 la_data_out[22]
*194 la_data_out[23]
*195 la_data_out[24]
*196 la_data_out[25]
*197 la_data_out[26]
*198 la_data_out[27]
*199 la_data_out[28]
*200 la_data_out[29]
*201 la_data_out[2]
*202 la_data_out[30]
*203 la_data_out[31]
*204 la_data_out[32]
*205 la_data_out[33]
*206 la_data_out[34]
*207 la_data_out[35]
*208 la_data_out[36]
*209 la_data_out[37]
*210 la_data_out[38]
*211 la_data_out[39]
*212 la_data_out[3]
*213 la_data_out[40]
*214 la_data_out[41]
*215 la_data_out[42]
*216 la_data_out[43]
*217 la_data_out[44]
*218 la_data_out[45]
*219 la_data_out[46]
*220 la_data_out[47]
*221 la_data_out[48]
*222 la_data_out[49]
*223 la_data_out[4]
*224 la_data_out[50]
*225 la_data_out[51]
*226 la_data_out[52]
*227 la_data_out[53]
*228 la_data_out[54]
*229 la_data_out[55]
*230 la_data_out[56]
*231 la_data_out[57]
*232 la_data_out[58]
*233 la_data_out[59]
*234 la_data_out[5]
*235 la_data_out[60]
*236 la_data_out[61]
*237 la_data_out[62]
*238 la_data_out[63]
*239 la_data_out[6]
*240 la_data_out[7]
*241 la_data_out[8]
*242 la_data_out[9]
*243 la_oenb[0]
*244 la_oenb[10]
*245 la_oenb[11]
*246 la_oenb[12]
*247 la_oenb[13]
*248 la_oenb[14]
*249 la_oenb[15]
*250 la_oenb[16]
*251 la_oenb[17]
*252 la_oenb[18]
*253 la_oenb[19]
*254 la_oenb[1]
*255 la_oenb[20]
*256 la_oenb[21]
*257 la_oenb[22]
*258 la_oenb[23]
*259 la_oenb[24]
*260 la_oenb[25]
*261 la_oenb[26]
*262 la_oenb[27]
*263 la_oenb[28]
*264 la_oenb[29]
*265 la_oenb[2]
*266 la_oenb[30]
*267 la_oenb[31]
*268 la_oenb[32]
*269 la_oenb[33]
*270 la_oenb[34]
*271 la_oenb[35]
*272 la_oenb[36]
*273 la_oenb[37]
*274 la_oenb[38]
*275 la_oenb[39]
*276 la_oenb[3]
*277 la_oenb[40]
*278 la_oenb[41]
*279 la_oenb[42]
*280 la_oenb[43]
*281 la_oenb[44]
*282 la_oenb[45]
*283 la_oenb[46]
*284 la_oenb[47]
*285 la_oenb[48]
*286 la_oenb[49]
*287 la_oenb[4]
*288 la_oenb[50]
*289 la_oenb[51]
*290 la_oenb[52]
*291 la_oenb[53]
*292 la_oenb[54]
*293 la_oenb[55]
*294 la_oenb[56]
*295 la_oenb[57]
*296 la_oenb[58]
*297 la_oenb[59]
*298 la_oenb[5]
*299 la_oenb[60]
*300 la_oenb[61]
*301 la_oenb[62]
*302 la_oenb[63]
*303 la_oenb[6]
*304 la_oenb[7]
*305 la_oenb[8]
*306 la_oenb[9]
*307 user_clock2
*308 user_irq[0]
*309 user_irq[1]
*310 user_irq[2]
*313 wb_clk_i
*314 wb_rst_i
*315 wbs_ack_o
*316 wbs_adr_i[0]
*317 wbs_adr_i[10]
*318 wbs_adr_i[11]
*319 wbs_adr_i[12]
*320 wbs_adr_i[13]
*321 wbs_adr_i[14]
*322 wbs_adr_i[15]
*323 wbs_adr_i[16]
*324 wbs_adr_i[17]
*325 wbs_adr_i[18]
*326 wbs_adr_i[19]
*327 wbs_adr_i[1]
*328 wbs_adr_i[20]
*329 wbs_adr_i[21]
*330 wbs_adr_i[22]
*331 wbs_adr_i[23]
*332 wbs_adr_i[24]
*333 wbs_adr_i[25]
*334 wbs_adr_i[26]
*335 wbs_adr_i[27]
*336 wbs_adr_i[28]
*337 wbs_adr_i[29]
*338 wbs_adr_i[2]
*339 wbs_adr_i[30]
*340 wbs_adr_i[31]
*341 wbs_adr_i[3]
*342 wbs_adr_i[4]
*343 wbs_adr_i[5]
*344 wbs_adr_i[6]
*345 wbs_adr_i[7]
*346 wbs_adr_i[8]
*347 wbs_adr_i[9]
*348 wbs_cyc_i
*349 wbs_dat_i[0]
*350 wbs_dat_i[10]
*351 wbs_dat_i[11]
*352 wbs_dat_i[12]
*353 wbs_dat_i[13]
*354 wbs_dat_i[14]
*355 wbs_dat_i[15]
*356 wbs_dat_i[16]
*357 wbs_dat_i[17]
*358 wbs_dat_i[18]
*359 wbs_dat_i[19]
*360 wbs_dat_i[1]
*361 wbs_dat_i[20]
*362 wbs_dat_i[21]
*363 wbs_dat_i[22]
*364 wbs_dat_i[23]
*365 wbs_dat_i[24]
*366 wbs_dat_i[25]
*367 wbs_dat_i[26]
*368 wbs_dat_i[27]
*369 wbs_dat_i[28]
*370 wbs_dat_i[29]
*371 wbs_dat_i[2]
*372 wbs_dat_i[30]
*373 wbs_dat_i[31]
*374 wbs_dat_i[3]
*375 wbs_dat_i[4]
*376 wbs_dat_i[5]
*377 wbs_dat_i[6]
*378 wbs_dat_i[7]
*379 wbs_dat_i[8]
*380 wbs_dat_i[9]
*381 wbs_dat_o[0]
*382 wbs_dat_o[10]
*383 wbs_dat_o[11]
*384 wbs_dat_o[12]
*385 wbs_dat_o[13]
*386 wbs_dat_o[14]
*387 wbs_dat_o[15]
*388 wbs_dat_o[16]
*389 wbs_dat_o[17]
*390 wbs_dat_o[18]
*391 wbs_dat_o[19]
*392 wbs_dat_o[1]
*393 wbs_dat_o[20]
*394 wbs_dat_o[21]
*395 wbs_dat_o[22]
*396 wbs_dat_o[23]
*397 wbs_dat_o[24]
*398 wbs_dat_o[25]
*399 wbs_dat_o[26]
*400 wbs_dat_o[27]
*401 wbs_dat_o[28]
*402 wbs_dat_o[29]
*403 wbs_dat_o[2]
*404 wbs_dat_o[30]
*405 wbs_dat_o[31]
*406 wbs_dat_o[3]
*407 wbs_dat_o[4]
*408 wbs_dat_o[5]
*409 wbs_dat_o[6]
*410 wbs_dat_o[7]
*411 wbs_dat_o[8]
*412 wbs_dat_o[9]
*413 wbs_sel_i[0]
*414 wbs_sel_i[1]
*415 wbs_sel_i[2]
*416 wbs_sel_i[3]
*417 wbs_stb_i
*418 wbs_we_i
*419 mprj

*PORTS
io_in[0] I
io_in[10] I
io_in[11] I
io_in[12] I
io_in[13] I
io_in[14] I
io_in[15] I
io_in[16] I
io_in[17] I
io_in[18] I
io_in[19] I
io_in[1] I
io_in[20] I
io_in[21] I
io_in[22] I
io_in[23] I
io_in[24] I
io_in[25] I
io_in[26] I
io_in[27] I
io_in[28] I
io_in[29] I
io_in[2] I
io_in[30] I
io_in[31] I
io_in[32] I
io_in[33] I
io_in[34] I
io_in[35] I
io_in[36] I
io_in[37] I
io_in[3] I
io_in[4] I
io_in[5] I
io_in[6] I
io_in[7] I
io_in[8] I
io_in[9] I
io_oeb[0] O
io_oeb[10] O
io_oeb[11] O
io_oeb[12] O
io_oeb[13] O
io_oeb[14] O
io_oeb[15] O
io_oeb[16] O
io_oeb[17] O
io_oeb[18] O
io_oeb[19] O
io_oeb[1] O
io_oeb[20] O
io_oeb[21] O
io_oeb[22] O
io_oeb[23] O
io_oeb[24] O
io_oeb[25] O
io_oeb[26] O
io_oeb[27] O
io_oeb[28] O
io_oeb[29] O
io_oeb[2] O
io_oeb[30] O
io_oeb[31] O
io_oeb[32] O
io_oeb[33] O
io_oeb[34] O
io_oeb[35] O
io_oeb[36] O
io_oeb[37] O
io_oeb[3] O
io_oeb[4] O
io_oeb[5] O
io_oeb[6] O
io_oeb[7] O
io_oeb[8] O
io_oeb[9] O
io_out[0] O
io_out[10] O
io_out[11] O
io_out[12] O
io_out[13] O
io_out[14] O
io_out[15] O
io_out[16] O
io_out[17] O
io_out[18] O
io_out[19] O
io_out[1] O
io_out[20] O
io_out[21] O
io_out[22] O
io_out[23] O
io_out[24] O
io_out[25] O
io_out[26] O
io_out[27] O
io_out[28] O
io_out[29] O
io_out[2] O
io_out[30] O
io_out[31] O
io_out[32] O
io_out[33] O
io_out[34] O
io_out[35] O
io_out[36] O
io_out[37] O
io_out[3] O
io_out[4] O
io_out[5] O
io_out[6] O
io_out[7] O
io_out[8] O
io_out[9] O
la_data_in[0] I
la_data_in[10] I
la_data_in[11] I
la_data_in[12] I
la_data_in[13] I
la_data_in[14] I
la_data_in[15] I
la_data_in[16] I
la_data_in[17] I
la_data_in[18] I
la_data_in[19] I
la_data_in[1] I
la_data_in[20] I
la_data_in[21] I
la_data_in[22] I
la_data_in[23] I
la_data_in[24] I
la_data_in[25] I
la_data_in[26] I
la_data_in[27] I
la_data_in[28] I
la_data_in[29] I
la_data_in[2] I
la_data_in[30] I
la_data_in[31] I
la_data_in[32] I
la_data_in[33] I
la_data_in[34] I
la_data_in[35] I
la_data_in[36] I
la_data_in[37] I
la_data_in[38] I
la_data_in[39] I
la_data_in[3] I
la_data_in[40] I
la_data_in[41] I
la_data_in[42] I
la_data_in[43] I
la_data_in[44] I
la_data_in[45] I
la_data_in[46] I
la_data_in[47] I
la_data_in[48] I
la_data_in[49] I
la_data_in[4] I
la_data_in[50] I
la_data_in[51] I
la_data_in[52] I
la_data_in[53] I
la_data_in[54] I
la_data_in[55] I
la_data_in[56] I
la_data_in[57] I
la_data_in[58] I
la_data_in[59] I
la_data_in[5] I
la_data_in[60] I
la_data_in[61] I
la_data_in[62] I
la_data_in[63] I
la_data_in[6] I
la_data_in[7] I
la_data_in[8] I
la_data_in[9] I
la_data_out[0] O
la_data_out[10] O
la_data_out[11] O
la_data_out[12] O
la_data_out[13] O
la_data_out[14] O
la_data_out[15] O
la_data_out[16] O
la_data_out[17] O
la_data_out[18] O
la_data_out[19] O
la_data_out[1] O
la_data_out[20] O
la_data_out[21] O
la_data_out[22] O
la_data_out[23] O
la_data_out[24] O
la_data_out[25] O
la_data_out[26] O
la_data_out[27] O
la_data_out[28] O
la_data_out[29] O
la_data_out[2] O
la_data_out[30] O
la_data_out[31] O
la_data_out[32] O
la_data_out[33] O
la_data_out[34] O
la_data_out[35] O
la_data_out[36] O
la_data_out[37] O
la_data_out[38] O
la_data_out[39] O
la_data_out[3] O
la_data_out[40] O
la_data_out[41] O
la_data_out[42] O
la_data_out[43] O
la_data_out[44] O
la_data_out[45] O
la_data_out[46] O
la_data_out[47] O
la_data_out[48] O
la_data_out[49] O
la_data_out[4] O
la_data_out[50] O
la_data_out[51] O
la_data_out[52] O
la_data_out[53] O
la_data_out[54] O
la_data_out[55] O
la_data_out[56] O
la_data_out[57] O
la_data_out[58] O
la_data_out[59] O
la_data_out[5] O
la_data_out[60] O
la_data_out[61] O
la_data_out[62] O
la_data_out[63] O
la_data_out[6] O
la_data_out[7] O
la_data_out[8] O
la_data_out[9] O
la_oenb[0] I
la_oenb[10] I
la_oenb[11] I
la_oenb[12] I
la_oenb[13] I
la_oenb[14] I
la_oenb[15] I
la_oenb[16] I
la_oenb[17] I
la_oenb[18] I
la_oenb[19] I
la_oenb[1] I
la_oenb[20] I
la_oenb[21] I
la_oenb[22] I
la_oenb[23] I
la_oenb[24] I
la_oenb[25] I
la_oenb[26] I
la_oenb[27] I
la_oenb[28] I
la_oenb[29] I
la_oenb[2] I
la_oenb[30] I
la_oenb[31] I
la_oenb[32] I
la_oenb[33] I
la_oenb[34] I
la_oenb[35] I
la_oenb[36] I
la_oenb[37] I
la_oenb[38] I
la_oenb[39] I
la_oenb[3] I
la_oenb[40] I
la_oenb[41] I
la_oenb[42] I
la_oenb[43] I
la_oenb[44] I
la_oenb[45] I
la_oenb[46] I
la_oenb[47] I
la_oenb[48] I
la_oenb[49] I
la_oenb[4] I
la_oenb[50] I
la_oenb[51] I
la_oenb[52] I
la_oenb[53] I
la_oenb[54] I
la_oenb[55] I
la_oenb[56] I
la_oenb[57] I
la_oenb[58] I
la_oenb[59] I
la_oenb[5] I
la_oenb[60] I
la_oenb[61] I
la_oenb[62] I
la_oenb[63] I
la_oenb[6] I
la_oenb[7] I
la_oenb[8] I
la_oenb[9] I
user_clock2 I
user_irq[0] O
user_irq[1] O
user_irq[2] O
wb_clk_i I
wb_rst_i I
wbs_ack_o O
wbs_adr_i[0] I
wbs_adr_i[10] I
wbs_adr_i[11] I
wbs_adr_i[12] I
wbs_adr_i[13] I
wbs_adr_i[14] I
wbs_adr_i[15] I
wbs_adr_i[16] I
wbs_adr_i[17] I
wbs_adr_i[18] I
wbs_adr_i[19] I
wbs_adr_i[1] I
wbs_adr_i[20] I
wbs_adr_i[21] I
wbs_adr_i[22] I
wbs_adr_i[23] I
wbs_adr_i[24] I
wbs_adr_i[25] I
wbs_adr_i[26] I
wbs_adr_i[27] I
wbs_adr_i[28] I
wbs_adr_i[29] I
wbs_adr_i[2] I
wbs_adr_i[30] I
wbs_adr_i[31] I
wbs_adr_i[3] I
wbs_adr_i[4] I
wbs_adr_i[5] I
wbs_adr_i[6] I
wbs_adr_i[7] I
wbs_adr_i[8] I
wbs_adr_i[9] I
wbs_cyc_i I
wbs_dat_i[0] I
wbs_dat_i[10] I
wbs_dat_i[11] I
wbs_dat_i[12] I
wbs_dat_i[13] I
wbs_dat_i[14] I
wbs_dat_i[15] I
wbs_dat_i[16] I
wbs_dat_i[17] I
wbs_dat_i[18] I
wbs_dat_i[19] I
wbs_dat_i[1] I
wbs_dat_i[20] I
wbs_dat_i[21] I
wbs_dat_i[22] I
wbs_dat_i[23] I
wbs_dat_i[24] I
wbs_dat_i[25] I
wbs_dat_i[26] I
wbs_dat_i[27] I
wbs_dat_i[28] I
wbs_dat_i[29] I
wbs_dat_i[2] I
wbs_dat_i[30] I
wbs_dat_i[31] I
wbs_dat_i[3] I
wbs_dat_i[4] I
wbs_dat_i[5] I
wbs_dat_i[6] I
wbs_dat_i[7] I
wbs_dat_i[8] I
wbs_dat_i[9] I
wbs_dat_o[0] O
wbs_dat_o[10] O
wbs_dat_o[11] O
wbs_dat_o[12] O
wbs_dat_o[13] O
wbs_dat_o[14] O
wbs_dat_o[15] O
wbs_dat_o[16] O
wbs_dat_o[17] O
wbs_dat_o[18] O
wbs_dat_o[19] O
wbs_dat_o[1] O
wbs_dat_o[20] O
wbs_dat_o[21] O
wbs_dat_o[22] O
wbs_dat_o[23] O
wbs_dat_o[24] O
wbs_dat_o[25] O
wbs_dat_o[26] O
wbs_dat_o[27] O
wbs_dat_o[28] O
wbs_dat_o[29] O
wbs_dat_o[2] O
wbs_dat_o[30] O
wbs_dat_o[31] O
wbs_dat_o[3] O
wbs_dat_o[4] O
wbs_dat_o[5] O
wbs_dat_o[6] O
wbs_dat_o[7] O
wbs_dat_o[8] O
wbs_dat_o[9] O
wbs_sel_i[0] I
wbs_sel_i[1] I
wbs_sel_i[2] I
wbs_sel_i[3] I
wbs_stb_i I
wbs_we_i I

*D_NET *1 0.0161701
*CONN
*P io_in[0] I
*I *419:io_in[0] I *D alpha_soc
*CAP
1 io_in[0] 0.00366305
2 *419:io_in[0] 0.00335537
3 *1:11 0.00701842
4 *419:io_in[0] io_out[0] 0.00213326
*RES
1 io_in[0] *1:11 38.295 
2 *1:11 *419:io_in[0] 29.925 
*END

*D_NET *2 0.170087
*CONN
*P io_in[10] I
*I *419:io_in[10] I *D alpha_soc
*CAP
1 io_in[10] 0.00426533
2 *419:io_in[10] 0.000768698
3 *2:9 0.00942464
4 *2:7 0.0129213
5 *2:9 *36:9 0.00316084
6 *2:9 *37:9 0.0489916
7 *2:9 *40:9 0.0905544
*RES
1 io_in[10] *2:7 36.585 
2 *2:7 *2:9 248.85 
3 *2:9 *419:io_in[10] 10.665 
*END

*D_NET *3 0.219024
*CONN
*P io_in[11] I
*I *419:io_in[11] I *D alpha_soc
*CAP
1 io_in[11] 0.00100437
2 *419:io_in[11] 0.00395989
3 *3:9 0.00762937
4 *3:7 0.00467386
5 *419:io_in[11] io_oeb[6] 0.000110698
6 *3:9 *78:9 0.0941821
7 *3:9 *79:9 0.106319
8 *3:9 *112:9 0.00114398
*RES
1 io_in[11] *3:7 11.925 
2 *3:7 *3:9 275.85 
3 *3:9 *419:io_in[11] 35.325 
*END

*D_NET *4 0.22167
*CONN
*P io_in[12] I
*I *419:io_in[12] I *D alpha_soc
*CAP
1 io_in[12] 0.0042408
2 *419:io_in[12] 0.000708628
3 *4:9 0.00885168
4 *4:7 0.0123838
5 *4:9 *5:9 0.107476
6 *4:9 *40:9 0.0880094
*RES
1 io_in[12] *4:7 36.945 
2 *4:7 *4:9 302.85 
3 *4:9 *419:io_in[12] 10.305 
*END

*D_NET *5 0.166119
*CONN
*P io_in[13] I
*I *419:io_in[13] I *D alpha_soc
*CAP
1 io_in[13] 0.00422852
2 *419:io_in[13] 0.000687049
3 *5:9 0.025093
4 *5:7 0.0286345
5 *4:9 *5:9 0.107476
*RES
1 io_in[13] *5:7 37.125 
2 *5:7 *5:9 329.85 
3 *5:9 *419:io_in[13] 10.125 
*END

*D_NET *6 0.272941
*CONN
*P io_in[14] I
*I *419:io_in[14] I *D alpha_soc
*CAP
1 io_in[14] 0.00131687
2 *419:io_in[14] 0.00390949
3 *6:9 0.0107244
4 *6:7 0.00813183
5 *6:9 *42:9 0.109748
6 *6:9 *82:9 0.139111
*RES
1 io_in[14] *6:7 12.645 
2 *6:7 *6:9 356.85 
3 *6:9 *419:io_in[14] 34.605 
*END

*D_NET *7 0.107641
*CONN
*P io_in[15] I
*I *419:io_in[15] I *D alpha_soc
*CAP
1 io_in[15] 0.00107539
2 *419:io_in[15] 0.0471645
3 *7:11 0.0518165
4 *7:7 0.00572741
5 *7:11 *83:11 0.00185716
*RES
1 io_in[15] *7:7 12.825 
2 *7:7 *7:11 44.73 
3 *7:11 *419:io_in[15] 364.185 
*END

*D_NET *8 0.104843
*CONN
*P io_in[16] I
*I *419:io_in[16] I *D alpha_soc
*CAP
1 io_in[16] 0.00476616
2 *419:io_in[16] 0.00124266
3 *8:13 0.0476492
4 *8:11 0.0511727
5 *8:11 *45:11 1.18477e-05
*RES
1 io_in[16] *8:11 47.115 
2 *8:11 *8:13 358.29 
3 *8:13 *419:io_in[16] 18.495 
*END

*D_NET *9 0.103602
*CONN
*P io_in[17] I
*I *419:io_in[17] I *D alpha_soc
*CAP
1 io_in[17] 0.00405728
2 *419:io_in[17] 0.00138297
3 *9:13 0.0477436
4 *9:11 0.0504179
*RES
1 io_in[17] *9:11 40.995 
2 *9:11 *9:13 357.93 
3 *9:13 *419:io_in[17] 17.955 
*END

*D_NET *10 0.10202
*CONN
*P io_in[18] I
*I *419:io_in[18] I *D alpha_soc
*CAP
1 io_in[18] 0.0032635
2 *419:io_in[18] 0.0013859
3 *10:13 0.0477465
4 *10:11 0.0496241
*RES
1 io_in[18] *10:11 34.515 
2 *10:11 *10:13 357.93 
3 *10:13 *419:io_in[18] 17.415 
*END

*D_NET *11 0.0998506
*CONN
*P io_in[19] I
*I *419:io_in[19] I *D alpha_soc
*CAP
1 io_in[19] 0.00276082
2 *419:io_in[19] 0.0471645
3 *11:11 0.0499253
*RES
1 io_in[19] *11:11 29.475 
2 *11:11 *419:io_in[19] 364.185 
*END

*D_NET *12 0.0112778
*CONN
*P io_in[1] I
*I *419:io_in[1] I *D alpha_soc
*CAP
1 io_in[1] 0.0028371
2 *419:io_in[1] 0.00280182
3 *12:11 0.00563892
*RES
1 io_in[1] *12:11 29.835 
2 *12:11 *419:io_in[1] 23.265 
*END

*D_NET *13 0.0981226
*CONN
*P io_in[20] I
*I *419:io_in[20] I *D alpha_soc
*CAP
1 io_in[20] 0.00111873
2 *419:io_in[20] 0.00142587
3 *13:13 0.0479425
4 *13:11 0.0476354
*RES
1 io_in[20] *13:11 17.595 
2 *13:11 *13:13 359.19 
3 *13:13 *419:io_in[20] 19.035 
*END

*D_NET *14 0.0970275
*CONN
*P io_in[21] I
*I *419:io_in[21] I *D alpha_soc
*CAP
1 io_in[21] 0.0475615
2 *419:io_in[21] 0.000952232
3 *14:5 0.0485137
*RES
1 io_in[21] *14:5 367.425 
2 *14:5 *419:io_in[21] 16.155 
*END

*D_NET *15 0.0987107
*CONN
*P io_in[22] I
*I *419:io_in[22] I *D alpha_soc
*CAP
1 io_in[22] 0.0474006
2 *419:io_in[22] 0.00195478
3 *15:5 0.0493553
*RES
1 io_in[22] *15:5 366.165 
2 *15:5 *419:io_in[22] 24.435 
*END

*D_NET *16 0.100394
*CONN
*P io_in[23] I
*I *419:io_in[23] I *D alpha_soc
*CAP
1 io_in[23] 0.0475615
2 *419:io_in[23] 0.00263542
3 *16:5 0.0501969
*RES
1 io_in[23] *16:5 367.425 
2 *16:5 *419:io_in[23] 30.195 
*END

*D_NET *17 0.182358
*CONN
*P io_in[24] I
*I *419:io_in[24] I *D alpha_soc
*CAP
1 io_in[24] 0.000600732
2 *419:io_in[24] 0.00217558
3 *17:13 0.022671
4 *17:11 0.0260767
5 *17:7 0.00618202
6 *17:13 *19:9 0
7 *17:13 *55:17 0.119552
8 *17:13 *56:17 0.0050994
*RES
1 io_in[24] *17:7 9.405 
2 *17:7 *17:11 44.7654 
3 *17:11 *17:13 324.145 
4 *17:13 *419:io_in[24] 18.585 
*END

*D_NET *18 0.107233
*CONN
*P io_in[25] I
*I *419:io_in[25] I *D alpha_soc
*CAP
1 io_in[25] 0.00517517
2 *419:io_in[25] 0.000233868
3 *18:17 0.0391717
4 *18:15 0.0389379
5 *18:13 0.00517517
6 *18:13 *55:17 0
7 *18:17 io_oeb[23] 0.018539
*RES
1 io_in[25] *18:13 48.645 
2 *18:13 *18:15 4.5 
3 *18:15 *18:17 317.97 
4 *18:17 *419:io_in[25] 6.345 
*END

*D_NET *19 0.08234
*CONN
*P io_in[26] I
*I *419:io_in[26] I *D alpha_soc
*CAP
1 io_in[26] 0.000428097
2 *419:io_in[26] 0.0022846
3 *19:9 0.0407419
4 *19:7 0.0388854
5 *19:9 *56:17 0
6 *17:13 *19:9 0
*RES
1 io_in[26] *19:7 7.965 
2 *19:7 *19:9 312.39 
3 *19:9 *419:io_in[26] 19.845 
*END

*D_NET *20 0.195979
*CONN
*P io_in[27] I
*I *419:io_in[27] I *D alpha_soc
*CAP
1 io_in[27] 0.000894017
2 *419:io_in[27] 0.00168613
3 *20:19 0.00457943
4 *20:9 0.00790641
5 *20:7 0.00590713
6 *20:9 *56:17 0.00438091
7 *20:9 *57:17 0.004307
8 *20:9 *94:17 0.0641144
9 *20:9 *96:17 0.0919743
10 *20:19 io_oeb[30] 0
11 *20:19 *24:9 0.0019513
12 *20:19 *57:9 0.00357063
13 *20:19 *96:13 0.00470699
*RES
1 io_in[27] *20:7 9.945 
2 *20:7 *20:9 250.83 
3 *20:9 *20:19 48.96 
4 *20:19 *419:io_in[27] 11.565 
*END

*D_NET *21 0.199732
*CONN
*P io_in[28] I
*I *419:io_in[28] I *D alpha_soc
*CAP
1 io_in[28] 0.00107548
2 *419:io_in[28] 0.00187939
3 *21:9 0.00534107
4 *21:7 0.00453715
5 *21:9 *25:9 0.00127811
6 *21:9 *58:9 0.0979801
7 *21:9 *59:9 0.0849625
8 *21:9 *63:9 0.00267826
*RES
1 io_in[28] *21:7 10.845 
2 *21:7 *21:9 256.23 
3 *21:9 *419:io_in[28] 16.965 
*END

*D_NET *22 0.181813
*CONN
*P io_in[29] I
*I *419:io_in[29] I *D alpha_soc
*CAP
1 io_in[29] 0.00100269
2 *419:io_in[29] 0.00180238
3 *22:9 0.00393759
4 *22:7 0.0031379
5 *419:io_in[29] io_out[32] 0
6 *22:7 *55:15 0
7 *22:9 *26:9 0.00252133
8 *22:9 *59:9 0.0865805
9 *22:9 *98:9 0.0828303
*RES
1 io_in[29] *22:7 11.205 
2 *22:7 *22:9 228.15 
3 *22:9 *419:io_in[29] 16.605 
*END

*D_NET *23 0.0234975
*CONN
*P io_in[2] I
*I *419:io_in[2] I *D alpha_soc
*CAP
1 io_in[2] 0.00417779
2 *419:io_in[2] 0.00353854
3 *23:7 0.00771632
4 *419:io_in[2] *50:11 0.00473563
5 *419:io_in[2] *61:9 0.00332924
*RES
1 io_in[2] *23:7 37.125 
2 *23:7 *419:io_in[2] 42.975 
*END

*D_NET *24 0.153951
*CONN
*P io_in[30] I
*I *419:io_in[30] I *D alpha_soc
*CAP
1 io_in[30] 0.00105903
2 *419:io_in[30] 0.00170379
3 *24:9 0.00556909
4 *24:7 0.00492433
5 *24:7 *57:15 0
6 *24:9 *26:9 0.00108492
7 *24:9 *60:9 0.0752691
8 *24:9 *62:9 0.0623899
9 *20:19 *24:9 0.0019513
*RES
1 io_in[30] *24:7 11.745 
2 *24:7 *24:9 200.07 
3 *24:9 *419:io_in[30] 16.065 
*END

*D_NET *25 0.0956282
*CONN
*P io_in[31] I
*I *419:io_in[31] I *D alpha_soc
*CAP
1 io_in[31] 0.000713462
2 *419:io_in[31] 0.00218537
3 *25:9 0.0130123
4 *25:7 0.0115404
5 *25:7 *96:13 0.000164863
6 *25:9 *58:9 0.0156858
7 *25:9 *63:9 0.0510124
8 *25:9 *96:17 3.54969e-05
9 *21:9 *25:9 0.00127811
*RES
1 io_in[31] *25:7 10.485 
2 *25:7 *25:9 171.99 
3 *25:9 *419:io_in[31] 17.325 
*END

*D_NET *26 0.10622
*CONN
*P io_in[32] I
*I *419:io_in[32] I *D alpha_soc
*CAP
1 io_in[32] 0.00080722
2 *419:io_in[32] 0.00181167
3 *26:9 0.00356351
4 *26:7 0.00255906
5 *26:9 *27:9 0.0306162
6 *26:9 *28:9 0.0031911
7 *26:9 *59:9 0.00429363
8 *26:9 *60:9 0.00125453
9 *26:9 *62:9 0.000114457
10 *26:9 *63:9 0.0526735
11 *26:9 *98:9 0.00172836
12 *22:9 *26:9 0.00252133
13 *24:9 *26:9 0.00108492
*RES
1 io_in[32] *26:7 10.845 
2 *26:7 *26:9 143.91 
3 *26:9 *419:io_in[32] 16.965 
*END

*D_NET *27 0.0852115
*CONN
*P io_in[33] I
*I *419:io_in[33] I *D alpha_soc
*CAP
1 io_in[33] 0.000845726
2 *419:io_in[33] 0.00175624
3 *27:9 0.00277392
4 *27:7 0.00186341
5 *27:9 *28:9 0.00707735
6 *27:9 *62:9 0.00177665
7 *27:9 *66:9 0.000984638
8 *27:9 *103:9 0.0375174
9 *26:9 *27:9 0.0306162
*RES
1 io_in[33] *27:7 11.025 
2 *27:7 *27:9 115.83 
3 *27:9 *419:io_in[33] 16.785 
*END

*D_NET *28 0.0437415
*CONN
*P io_in[34] I
*I *419:io_in[34] I *D alpha_soc
*CAP
1 io_in[34] 0.000751787
2 *419:io_in[34] 0.00179941
3 *28:9 0.00743468
4 *28:7 0.00638705
5 *28:9 *66:9 0.0171001
6 *26:9 *28:9 0.0031911
7 *27:9 *28:9 0.00707735
*RES
1 io_in[34] *28:7 10.665 
2 *28:7 *28:9 87.75 
3 *28:9 *419:io_in[34] 17.145 
*END

*D_NET *29 0.0338648
*CONN
*P io_in[35] I
*I *419:io_in[35] I *D alpha_soc
*CAP
1 io_in[35] 0.000828799
2 *419:io_in[35] 0.0017224
3 *29:9 0.00548809
4 *29:7 0.00459449
5 *29:9 *66:9 0.0186329
6 *29:9 *105:9 0.00259812
*RES
1 io_in[35] *29:7 11.025 
2 *29:7 *29:9 59.67 
3 *29:9 *419:io_in[35] 16.785 
*END

*D_NET *30 0.0189627
*CONN
*P io_in[36] I
*I *419:io_in[36] I *D alpha_soc
*CAP
1 io_in[36] 0.00210619
2 *419:io_in[36] 0.00560021
3 *30:7 0.0077064
4 *419:io_in[36] *106:11 0.00354989
*RES
1 io_in[36] *30:7 19.845 
2 *30:7 *419:io_in[36] 39.555 
*END

*D_NET *31 0.00626674
*CONN
*P io_in[37] I
*I *419:io_in[37] I *D alpha_soc
*CAP
1 io_in[37] 0.00313337
2 *419:io_in[37] 0.00313337
*RES
1 io_in[37] *419:io_in[37] 31.32 
*END

*D_NET *32 0.0383901
*CONN
*P io_in[3] I
*I *419:io_in[3] I *D alpha_soc
*CAP
1 io_in[3] 0.00409146
2 *419:io_in[3] 0.000790278
3 *32:9 0.00470791
4 *32:7 0.00800909
5 *32:9 *61:9 0.00158698
6 *32:9 *108:9 0.0192044
*RES
1 io_in[3] *32:7 36.405 
2 *32:7 *32:9 59.85 
3 *32:9 *419:io_in[3] 10.845 
*END

*D_NET *33 0.0317299
*CONN
*P io_in[4] I
*I *419:io_in[4] I *D alpha_soc
*CAP
1 io_in[4] 0.00112918
2 *419:io_in[4] 0.00378641
3 *33:9 0.0138288
4 *33:7 0.0111716
5 *419:io_in[4] io_oeb[2] 0
6 *33:9 *35:9 0.00181399
*RES
1 io_in[4] *33:7 12.825 
2 *33:7 *33:9 86.85 
3 *33:9 *419:io_in[4] 34.425 
*END

*D_NET *34 0.0839121
*CONN
*P io_in[5] I
*I *419:io_in[5] I *D alpha_soc
*CAP
1 io_in[5] 0.00425769
2 *419:io_in[5] 0.000725555
3 *34:9 0.00486007
4 *34:7 0.0083922
5 *34:9 *36:9 0.0162773
6 *34:9 *37:9 0.000485957
7 *34:9 *70:9 0.0116324
8 *34:9 *71:9 0.0372809
*RES
1 io_in[5] *34:7 36.945 
2 *34:7 *34:9 113.85 
3 *34:9 *419:io_in[5] 10.305 
*END

*D_NET *35 0.0785884
*CONN
*P io_in[6] I
*I *419:io_in[6] I *D alpha_soc
*CAP
1 io_in[6] 0.00106444
2 *419:io_in[6] 0.00388495
3 *35:9 0.012436
4 *35:7 0.0096155
5 *35:9 *38:9 0.00283045
6 *35:9 *73:9 0.046943
7 *33:9 *35:9 0.00181399
*RES
1 io_in[6] *35:7 12.285 
2 *35:7 *35:9 140.85 
3 *35:9 *419:io_in[6] 34.965 
*END

*D_NET *36 0.0675261
*CONN
*P io_in[7] I
*I *419:io_in[7] I *D alpha_soc
*CAP
1 io_in[7] 0.00436389
2 *419:io_in[7] 0.000687049
3 *36:9 0.0132729
4 *36:7 0.0169497
5 *36:9 *37:9 0.00652375
6 *36:9 *40:9 0.00629067
7 *2:9 *36:9 0.00316084
8 *34:9 *36:9 0.0162773
*RES
1 io_in[7] *36:7 37.125 
2 *36:7 *36:9 167.85 
3 *36:9 *419:io_in[7] 10.125 
*END

*D_NET *37 0.093926
*CONN
*P io_in[8] I
*I *419:io_in[8] I *D alpha_soc
*CAP
1 io_in[8] 0.00400758
2 *419:io_in[8] 0.000807205
3 *37:9 0.0146982
4 *37:7 0.0178986
5 *37:7 *81:7 0.000513137
6 *2:9 *37:9 0.0489916
7 *34:9 *37:9 0.000485957
8 *36:9 *37:9 0.00652375
*RES
1 io_in[8] *37:7 36.405 
2 *37:7 *37:9 194.85 
3 *37:9 *419:io_in[8] 10.845 
*END

*D_NET *38 0.11649
*CONN
*P io_in[9] I
*I *419:io_in[9] I *D alpha_soc
*CAP
1 io_in[9] 0.00115215
2 *419:io_in[9] 0.00495247
3 *38:9 0.020066
4 *38:7 0.0162657
5 *38:9 *73:9 0.00143847
6 *38:9 *78:9 0.069785
7 *35:9 *38:9 0.00283045
*RES
1 io_in[9] *38:7 11.565 
2 *38:7 *38:9 221.85 
3 *38:9 *419:io_in[9] 35.685 
*END

*D_NET *39 0.0103894
*CONN
*P io_oeb[0] O
*I *419:io_oeb[0] O *D alpha_soc
*CAP
1 io_oeb[0] 0.00111227
2 *419:io_oeb[0] 0.00408242
3 *39:11 0.00519468
*RES
1 *419:io_oeb[0] *39:11 41.895 
2 *39:11 io_oeb[0] 8.325 
*END

*D_NET *40 0.203569
*CONN
*P io_oeb[10] O
*I *419:io_oeb[10] O *D alpha_soc
*CAP
1 io_oeb[10] 0.00426998
2 *419:io_oeb[10] 0.000747119
3 *40:9 0.00860994
4 *40:7 0.00508708
5 *2:9 *40:9 0.0905544
6 *4:9 *40:9 0.0880094
7 *36:9 *40:9 0.00629067
*RES
1 *419:io_oeb[10] *40:7 10.485 
2 *40:7 *40:9 267.03 
3 *40:9 io_oeb[10] 36.765 
*END

*D_NET *41 0.123255
*CONN
*P io_oeb[11] O
*I *419:io_oeb[11] O *D alpha_soc
*CAP
1 io_oeb[11] 0.00393869
2 *419:io_oeb[11] 0.0010615
3 *41:9 0.0312898
4 *41:7 0.0284126
5 *41:9 *114:9 0.0585527
*RES
1 *419:io_oeb[11] *41:7 12.825 
2 *41:7 *41:9 293.85 
3 *41:9 io_oeb[11] 34.425 
*END

*D_NET *42 0.254199
*CONN
*P io_oeb[12] O
*I *419:io_oeb[12] O *D alpha_soc
*CAP
1 io_oeb[12] 0.00106911
2 *419:io_oeb[12] 0.00393107
3 *42:9 0.00366231
4 *42:7 0.00652426
5 *42:9 *80:9 0.120874
6 *42:9 *113:9 0.00839087
7 *6:9 *42:9 0.109748
*RES
1 *419:io_oeb[12] *42:7 34.785 
2 *42:7 *42:9 320.85 
3 *42:9 io_oeb[12] 12.465 
*END

*D_NET *43 0.0953462
*CONN
*P io_oeb[13] O
*I *419:io_oeb[13] O *D alpha_soc
*CAP
1 io_oeb[13] 0.00322363
2 *419:io_oeb[13] 0.00175965
3 *43:9 0.0459134
4 *43:7 0.0444494
*RES
1 *419:io_oeb[13] *43:7 18.225 
2 *43:7 *43:9 347.85 
3 *43:9 io_oeb[13] 29.025 
*END

*D_NET *44 0.101831
*CONN
*P io_oeb[14] O
*I *419:io_oeb[14] O *D alpha_soc
*CAP
1 io_oeb[14] 0.00284919
2 *419:io_oeb[14] 0.00210025
3 *44:9 0.0488153
4 *44:7 0.0480664
*RES
1 *419:io_oeb[14] *44:7 20.925 
2 *44:7 *44:9 374.85 
3 *44:9 io_oeb[14] 26.325 
*END

*D_NET *45 0.106191
*CONN
*P io_oeb[15] O
*I *419:io_oeb[15] O *D alpha_soc
*CAP
1 io_oeb[15] 0.00109135
2 *419:io_oeb[15] 0.0471645
3 *45:11 0.00544099
4 *45:5 0.0515141
5 *45:11 *83:11 0.000968503
6 *8:11 *45:11 1.18477e-05
*RES
1 *419:io_oeb[15] *45:5 364.185 
2 *45:5 *45:11 44.55 
3 *45:11 io_oeb[15] 8.325 
*END

*D_NET *46 0.103846
*CONN
*P io_oeb[16] O
*I *419:io_oeb[16] O *D alpha_soc
*CAP
1 io_oeb[16] 0.0047584
2 *419:io_oeb[16] 0.0471645
3 *46:5 0.0519228
*RES
1 *419:io_oeb[16] *46:5 364.185 
2 *46:5 io_oeb[16] 45.855 
*END

*D_NET *47 0.101935
*CONN
*P io_oeb[17] O
*I *419:io_oeb[17] O *D alpha_soc
*CAP
1 io_oeb[17] 0.00380298
2 *419:io_oeb[17] 0.0471645
3 *47:5 0.0509674
*RES
1 *419:io_oeb[17] *47:5 364.185 
2 *47:5 io_oeb[17] 39.015 
*END

*D_NET *48 0.100005
*CONN
*P io_oeb[18] O
*I *419:io_oeb[18] O *D alpha_soc
*CAP
1 io_oeb[18] 0.00283826
2 *419:io_oeb[18] 0.0471645
3 *48:5 0.0500027
*RES
1 *419:io_oeb[18] *48:5 364.185 
2 *48:5 io_oeb[18] 31.815 
*END

*D_NET *49 0.0983222
*CONN
*P io_oeb[19] O
*I *419:io_oeb[19] O *D alpha_soc
*CAP
1 io_oeb[19] 0.00183572
2 *419:io_oeb[19] 0.0473254
3 *49:5 0.0491611
*RES
1 *419:io_oeb[19] *49:5 365.445 
2 *49:5 io_oeb[19] 23.535 
*END

*D_NET *50 0.019623
*CONN
*P io_oeb[1] O
*I *419:io_oeb[1] O *D alpha_soc
*CAP
1 io_oeb[1] 0.00323173
2 *419:io_oeb[1] 0.0031182
3 *50:11 0.00634993
4 io_oeb[1] *99:7 0.00218755
5 *419:io_in[2] *50:11 0.00473563
*RES
1 *419:io_oeb[1] *50:11 38.655 
2 *50:11 io_oeb[1] 32.445 
*END

*D_NET *51 0.0965253
*CONN
*P io_oeb[20] O
*I *419:io_oeb[20] O *D alpha_soc
*CAP
1 io_oeb[20] 0.00163251
2 *419:io_oeb[20] 0.0466301
3 *51:5 0.0482626
*RES
1 *419:io_oeb[20] *51:5 360.135 
2 *51:5 io_oeb[20] 12.825 
*END

*D_NET *52 0.0981496
*CONN
*P io_oeb[21] O
*I *419:io_oeb[21] O *D alpha_soc
*CAP
1 io_oeb[21] 0.0474006
2 *419:io_oeb[21] 0.00167425
3 *52:11 0.0490748
*RES
1 *419:io_oeb[21] *52:11 22.095 
2 *52:11 io_oeb[21] 366.165 
*END

*D_NET *53 0.0997896
*CONN
*P io_oeb[22] O
*I *419:io_oeb[22] O *D alpha_soc
*CAP
1 io_oeb[22] 0.0475615
2 *419:io_oeb[22] 0.00233331
3 *53:11 0.0498948
*RES
1 *419:io_oeb[22] *53:11 27.675 
2 *53:11 io_oeb[22] 367.425 
*END

*D_NET *54 0.120055
*CONN
*P io_oeb[23] O
*I *419:io_oeb[23] O *D alpha_soc
*CAP
1 io_oeb[23] 0.0475615
2 *419:io_oeb[23] 0.00319648
3 *54:11 0.050758
4 *18:17 io_oeb[23] 0.018539
*RES
1 *419:io_oeb[23] *54:11 34.875 
2 *54:11 io_oeb[23] 367.425 
*END

*D_NET *55 0.251104
*CONN
*P io_oeb[24] O
*I *419:io_oeb[24] O *D alpha_soc
*CAP
1 io_oeb[24] 0.000617658
2 *419:io_oeb[24] 0.00164852
3 *55:17 0.00420533
4 *55:15 0.00407845
5 *55:9 0.00541423
6 *55:7 0.00657197
7 *55:9 *94:9 0.0126252