*SPEF "ieee 1481-1999"
*DESIGN "user_project_wrapper"
*DATE "11:11:11 Fri 11 11, 1111"
*VENDOR "OpenRCX"
*PROGRAM "Parallel Extraction"
*VERSION "1.0"
*DESIGN_FLOW "NAME_SCOPE LOCAL" "PIN_CAP NONE"
*DIVIDER /
*DELIMITER :
*BUS_DELIMITER []
*T_UNIT 1 NS
*C_UNIT 1 PF
*R_UNIT 1 OHM
*L_UNIT 1 HENRY

*NAME_MAP
*1 io_in[0]
*2 io_in[10]
*3 io_in[11]
*4 io_in[12]
*5 io_in[13]
*6 io_in[14]
*7 io_in[15]
*8 io_in[16]
*9 io_in[17]
*10 io_in[18]
*11 io_in[19]
*12 io_in[1]
*13 io_in[20]
*14 io_in[21]
*15 io_in[22]
*16 io_in[23]
*17 io_in[24]
*18 io_in[25]
*19 io_in[26]
*20 io_in[27]
*21 io_in[28]
*22 io_in[29]
*23 io_in[2]
*24 io_in[30]
*25 io_in[31]
*26 io_in[32]
*27 io_in[33]
*28 io_in[34]
*29 io_in[35]
*30 io_in[36]
*31 io_in[37]
*32 io_in[3]
*33 io_in[4]
*34 io_in[5]
*35 io_in[6]
*36 io_in[7]
*37 io_in[8]
*38 io_in[9]
*39 io_oeb[0]
*40 io_oeb[10]
*41 io_oeb[11]
*42 io_oeb[12]
*43 io_oeb[13]
*44 io_oeb[14]
*45 io_oeb[15]
*46 io_oeb[16]
*47 io_oeb[17]
*48 io_oeb[18]
*49 io_oeb[19]
*50 io_oeb[1]
*51 io_oeb[20]
*52 io_oeb[21]
*53 io_oeb[22]
*54 io_oeb[23]
*55 io_oeb[24]
*56 io_oeb[25]
*57 io_oeb[26]
*58 io_oeb[27]
*59 io_oeb[28]
*60 io_oeb[29]
*61 io_oeb[2]
*62 io_oeb[30]
*63 io_oeb[31]
*64 io_oeb[32]
*65 io_oeb[33]
*66 io_oeb[34]
*67 io_oeb[35]
*68 io_oeb[36]
*69 io_oeb[37]
*70 io_oeb[3]
*71 io_oeb[4]
*72 io_oeb[5]
*73 io_oeb[6]
*74 io_oeb[7]
*75 io_oeb[8]
*76 io_oeb[9]
*77 io_out[0]
*78 io_out[10]
*79 io_out[11]
*80 io_out[12]
*81 io_out[13]
*82 io_out[14]
*83 io_out[15]
*84 io_out[16]
*85 io_out[17]
*86 io_out[18]
*87 io_out[19]
*88 io_out[1]
*89 io_out[20]
*90 io_out[21]
*91 io_out[22]
*92 io_out[23]
*93 io_out[24]
*94 io_out[25]
*95 io_out[26]
*96 io_out[27]
*97 io_out[28]
*98 io_out[29]
*99 io_out[2]
*100 io_out[30]
*101 io_out[31]
*102 io_out[32]
*103 io_out[33]
*104 io_out[34]
*105 io_out[35]
*106 io_out[36]
*107 io_out[37]
*108 io_out[3]
*109 io_out[4]
*110 io_out[5]
*111 io_out[6]
*112 io_out[7]
*113 io_out[8]
*114 io_out[9]
*115 la_data_in[0]
*116 la_data_in[10]
*117 la_data_in[11]
*118 la_data_in[12]
*119 la_data_in[13]
*120 la_data_in[14]
*121 la_data_in[15]
*122 la_data_in[16]
*123 la_data_in[17]
*124 la_data_in[18]
*125 la_data_in[19]
*126 la_data_in[1]
*127 la_data_in[20]
*128 la_data_in[21]
*129 la_data_in[22]
*130 la_data_in[23]
*131 la_data_in[24]
*132 la_data_in[25]
*133 la_data_in[26]
*134 la_data_in[27]
*135 la_data_in[28]
*136 la_data_in[29]
*137 la_data_in[2]
*138 la_data_in[30]
*139 la_data_in[31]
*140 la_data_in[32]
*141 la_data_in[33]
*142 la_data_in[34]
*143 la_data_in[35]
*144 la_data_in[36]
*145 la_data_in[37]
*146 la_data_in[38]
*147 la_data_in[39]
*148 la_data_in[3]
*149 la_data_in[40]
*150 la_data_in[41]
*151 la_data_in[42]
*152 la_data_in[43]
*153 la_data_in[44]
*154 la_data_in[45]
*155 la_data_in[46]
*156 la_data_in[47]
*157 la_data_in[48]
*158 la_data_in[49]
*159 la_data_in[4]
*160 la_data_in[50]
*161 la_data_in[51]
*162 la_data_in[52]
*163 la_data_in[53]
*164 la_data_in[54]
*165 la_data_in[55]
*166 la_data_in[56]
*167 la_data_in[57]
*168 la_data_in[58]
*169 la_data_in[59]
*170 la_data_in[5]
*171 la_data_in[60]
*172 la_data_in[61]
*173 la_data_in[62]
*174 la_data_in[63]
*175 la_data_in[6]
*176 la_data_in[7]
*177 la_data_in[8]
*178 la_data_in[9]
*179 la_data_out[0]
*180 la_data_out[10]
*181 la_data_out[11]
*182 la_data_out[12]
*183 la_data_out[13]
*184 la_data_out[14]
*185 la_data_out[15]
*186 la_data_out[16]
*187 la_data_out[17]
*188 la_data_out[18]
*189 la_data_out[19]
*190 la_data_out[1]
*191 la_data_out[20]
*192 la_data_out[21]
*193 la_data_out[22]
*194 la_data_out[23]
*195 la_data_out[24]
*196 la_data_out[25]
*197 la_data_out[26]
*198 la_data_out[27]
*199 la_data_out[28]
*200 la_data_out[29]
*201 la_data_out[2]
*202 la_data_out[30]
*203 la_data_out[31]
*204 la_data_out[32]
*205 la_data_out[33]
*206 la_data_out[34]
*207 la_data_out[35]
*208 la_data_out[36]
*209 la_data_out[37]
*210 la_data_out[38]
*211 la_data_out[39]
*212 la_data_out[3]
*213 la_data_out[40]
*214 la_data_out[41]
*215 la_data_out[42]
*216 la_data_out[43]
*217 la_data_out[44]
*218 la_data_out[45]
*219 la_data_out[46]
*220 la_data_out[47]
*221 la_data_out[48]
*222 la_data_out[49]
*223 la_data_out[4]
*224 la_data_out[50]
*225 la_data_out[51]
*226 la_data_out[52]
*227 la_data_out[53]
*228 la_data_out[54]
*229 la_data_out[55]
*230 la_data_out[56]
*231 la_data_out[57]
*232 la_data_out[58]
*233 la_data_out[59]
*234 la_data_out[5]
*235 la_data_out[60]
*236 la_data_out[61]
*237 la_data_out[62]
*238 la_data_out[63]
*239 la_data_out[6]
*240 la_data_out[7]
*241 la_data_out[8]
*242 la_data_out[9]
*243 la_oenb[0]
*244 la_oenb[10]
*245 la_oenb[11]
*246 la_oenb[12]
*247 la_oenb[13]
*248 la_oenb[14]
*249 la_oenb[15]
*250 la_oenb[16]
*251 la_oenb[17]
*252 la_oenb[18]
*253 la_oenb[19]
*254 la_oenb[1]
*255 la_oenb[20]
*256 la_oenb[21]
*257 la_oenb[22]
*258 la_oenb[23]
*259 la_oenb[24]
*260 la_oenb[25]
*261 la_oenb[26]
*262 la_oenb[27]
*263 la_oenb[28]
*264 la_oenb[29]
*265 la_oenb[2]
*266 la_oenb[30]
*267 la_oenb[31]
*268 la_oenb[32]
*269 la_oenb[33]
*270 la_oenb[34]
*271 la_oenb[35]
*272 la_oenb[36]
*273 la_oenb[37]
*274 la_oenb[38]
*275 la_oenb[39]
*276 la_oenb[3]
*277 la_oenb[40]
*278 la_oenb[41]
*279 la_oenb[42]
*280 la_oenb[43]
*281 la_oenb[44]
*282 la_oenb[45]
*283 la_oenb[46]
*284 la_oenb[47]
*285 la_oenb[48]
*286 la_oenb[49]
*287 la_oenb[4]
*288 la_oenb[50]
*289 la_oenb[51]
*290 la_oenb[52]
*291 la_oenb[53]
*292 la_oenb[54]
*293 la_oenb[55]
*294 la_oenb[56]
*295 la_oenb[57]
*296 la_oenb[58]
*297 la_oenb[59]
*298 la_oenb[5]
*299 la_oenb[60]
*300 la_oenb[61]
*301 la_oenb[62]
*302 la_oenb[63]
*303 la_oenb[6]
*304 la_oenb[7]
*305 la_oenb[8]
*306 la_oenb[9]
*307 user_clock2
*308 user_irq[0]
*309 user_irq[1]
*310 user_irq[2]
*313 wb_clk_i
*314 wb_rst_i
*315 wbs_ack_o
*316 wbs_adr_i[0]
*317 wbs_adr_i[10]
*318 wbs_adr_i[11]
*319 wbs_adr_i[12]
*320 wbs_adr_i[13]
*321 wbs_adr_i[14]
*322 wbs_adr_i[15]
*323 wbs_adr_i[16]
*324 wbs_adr_i[17]
*325 wbs_adr_i[18]
*326 wbs_adr_i[19]
*327 wbs_adr_i[1]
*328 wbs_adr_i[20]
*329 wbs_adr_i[21]
*330 wbs_adr_i[22]
*331 wbs_adr_i[23]
*332 wbs_adr_i[24]
*333 wbs_adr_i[25]
*334 wbs_adr_i[26]
*335 wbs_adr_i[27]
*336 wbs_adr_i[28]
*337 wbs_adr_i[29]
*338 wbs_adr_i[2]
*339 wbs_adr_i[30]
*340 wbs_adr_i[31]
*341 wbs_adr_i[3]
*342 wbs_adr_i[4]
*343 wbs_adr_i[5]
*344 wbs_adr_i[6]
*345 wbs_adr_i[7]
*346 wbs_adr_i[8]
*347 wbs_adr_i[9]
*348 wbs_cyc_i
*349 wbs_dat_i[0]
*350 wbs_dat_i[10]
*351 wbs_dat_i[11]
*352 wbs_dat_i[12]
*353 wbs_dat_i[13]
*354 wbs_dat_i[14]
*355 wbs_dat_i[15]
*356 wbs_dat_i[16]
*357 wbs_dat_i[17]
*358 wbs_dat_i[18]
*359 wbs_dat_i[19]
*360 wbs_dat_i[1]
*361 wbs_dat_i[20]
*362 wbs_dat_i[21]
*363 wbs_dat_i[22]
*364 wbs_dat_i[23]
*365 wbs_dat_i[24]
*366 wbs_dat_i[25]
*367 wbs_dat_i[26]
*368 wbs_dat_i[27]
*369 wbs_dat_i[28]
*370 wbs_dat_i[29]
*371 wbs_dat_i[2]
*372 wbs_dat_i[30]
*373 wbs_dat_i[31]
*374 wbs_dat_i[3]
*375 wbs_dat_i[4]
*376 wbs_dat_i[5]
*377 wbs_dat_i[6]
*378 wbs_dat_i[7]
*379 wbs_dat_i[8]
*380 wbs_dat_i[9]
*381 wbs_dat_o[0]
*382 wbs_dat_o[10]
*383 wbs_dat_o[11]
*384 wbs_dat_o[12]
*385 wbs_dat_o[13]
*386 wbs_dat_o[14]
*387 wbs_dat_o[15]
*388 wbs_dat_o[16]
*389 wbs_dat_o[17]
*390 wbs_dat_o[18]
*391 wbs_dat_o[19]
*392 wbs_dat_o[1]
*393 wbs_dat_o[20]
*394 wbs_dat_o[21]
*395 wbs_dat_o[22]
*396 wbs_dat_o[23]
*397 wbs_dat_o[24]
*398 wbs_dat_o[25]
*399 wbs_dat_o[26]
*400 wbs_dat_o[27]
*401 wbs_dat_o[28]
*402 wbs_dat_o[29]
*403 wbs_dat_o[2]
*404 wbs_dat_o[30]
*405 wbs_dat_o[31]
*406 wbs_dat_o[3]
*407 wbs_dat_o[4]
*408 wbs_dat_o[5]
*409 wbs_dat_o[6]
*410 wbs_dat_o[7]
*411 wbs_dat_o[8]
*412 wbs_dat_o[9]
*413 wbs_sel_i[0]
*414 wbs_sel_i[1]
*415 wbs_sel_i[2]
*416 wbs_sel_i[3]
*417 wbs_stb_i
*418 wbs_we_i
*419 mprj

*PORTS
io_in[0] I
io_in[10] I
io_in[11] I
io_in[12] I
io_in[13] I
io_in[14] I
io_in[15] I
io_in[16] I
io_in[17] I
io_in[18] I
io_in[19] I
io_in[1] I
io_in[20] I
io_in[21] I
io_in[22] I
io_in[23] I
io_in[24] I
io_in[25] I
io_in[26] I
io_in[27] I
io_in[28] I
io_in[29] I
io_in[2] I
io_in[30] I
io_in[31] I
io_in[32] I
io_in[33] I
io_in[34] I
io_in[35] I
io_in[36] I
io_in[37] I
io_in[3] I
io_in[4] I
io_in[5] I
io_in[6] I
io_in[7] I
io_in[8] I
io_in[9] I
io_oeb[0] O
io_oeb[10] O
io_oeb[11] O
io_oeb[12] O
io_oeb[13] O
io_oeb[14] O
io_oeb[15] O
io_oeb[16] O
io_oeb[17] O
io_oeb[18] O
io_oeb[19] O
io_oeb[1] O
io_oeb[20] O
io_oeb[21] O
io_oeb[22] O
io_oeb[23] O
io_oeb[24] O
io_oeb[25] O
io_oeb[26] O
io_oeb[27] O
io_oeb[28] O
io_oeb[29] O
io_oeb[2] O
io_oeb[30] O
io_oeb[31] O
io_oeb[32] O
io_oeb[33] O
io_oeb[34] O
io_oeb[35] O
io_oeb[36] O
io_oeb[37] O
io_oeb[3] O
io_oeb[4] O
io_oeb[5] O
io_oeb[6] O
io_oeb[7] O
io_oeb[8] O
io_oeb[9] O
io_out[0] O
io_out[10] O
io_out[11] O
io_out[12] O
io_out[13] O
io_out[14] O
io_out[15] O
io_out[16] O
io_out[17] O
io_out[18] O
io_out[19] O
io_out[1] O
io_out[20] O
io_out[21] O
io_out[22] O
io_out[23] O
io_out[24] O
io_out[25] O
io_out[26] O
io_out[27] O
io_out[28] O
io_out[29] O
io_out[2] O
io_out[30] O
io_out[31] O
io_out[32] O
io_out[33] O
io_out[34] O
io_out[35] O
io_out[36] O
io_out[37] O
io_out[3] O
io_out[4] O
io_out[5] O
io_out[6] O
io_out[7] O
io_out[8] O
io_out[9] O
la_data_in[0] I
la_data_in[10] I
la_data_in[11] I
la_data_in[12] I
la_data_in[13] I
la_data_in[14] I
la_data_in[15] I
la_data_in[16] I
la_data_in[17] I
la_data_in[18] I
la_data_in[19] I
la_data_in[1] I
la_data_in[20] I
la_data_in[21] I
la_data_in[22] I
la_data_in[23] I
la_data_in[24] I
la_data_in[25] I
la_data_in[26] I
la_data_in[27] I
la_data_in[28] I
la_data_in[29] I
la_data_in[2] I
la_data_in[30] I
la_data_in[31] I
la_data_in[32] I
la_data_in[33] I
la_data_in[34] I
la_data_in[35] I
la_data_in[36] I
la_data_in[37] I
la_data_in[38] I
la_data_in[39] I
la_data_in[3] I
la_data_in[40] I
la_data_in[41] I
la_data_in[42] I
la_data_in[43] I
la_data_in[44] I
la_data_in[45] I
la_data_in[46] I
la_data_in[47] I
la_data_in[48] I
la_data_in[49] I
la_data_in[4] I
la_data_in[50] I
la_data_in[51] I
la_data_in[52] I
la_data_in[53] I
la_data_in[54] I
la_data_in[55] I
la_data_in[56] I
la_data_in[57] I
la_data_in[58] I
la_data_in[59] I
la_data_in[5] I
la_data_in[60] I
la_data_in[61] I
la_data_in[62] I
la_data_in[63] I
la_data_in[6] I
la_data_in[7] I
la_data_in[8] I
la_data_in[9] I
la_data_out[0] O
la_data_out[10] O
la_data_out[11] O
la_data_out[12] O
la_data_out[13] O
la_data_out[14] O
la_data_out[15] O
la_data_out[16] O
la_data_out[17] O
la_data_out[18] O
la_data_out[19] O
la_data_out[1] O
la_data_out[20] O
la_data_out[21] O
la_data_out[22] O
la_data_out[23] O
la_data_out[24] O
la_data_out[25] O
la_data_out[26] O
la_data_out[27] O
la_data_out[28] O
la_data_out[29] O
la_data_out[2] O
la_data_out[30] O
la_data_out[31] O
la_data_out[32] O
la_data_out[33] O
la_data_out[34] O
la_data_out[35] O
la_data_out[36] O
la_data_out[37] O
la_data_out[38] O
la_data_out[39] O
la_data_out[3] O
la_data_out[40] O
la_data_out[41] O
la_data_out[42] O
la_data_out[43] O
la_data_out[44] O
la_data_out[45] O
la_data_out[46] O
la_data_out[47] O
la_data_out[48] O
la_data_out[49] O
la_data_out[4] O
la_data_out[50] O
la_data_out[51] O
la_data_out[52] O
la_data_out[53] O
la_data_out[54] O
la_data_out[55] O
la_data_out[56] O
la_data_out[57] O
la_data_out[58] O
la_data_out[59] O
la_data_out[5] O
la_data_out[60] O
la_data_out[61] O
la_data_out[62] O
la_data_out[63] O
la_data_out[6] O
la_data_out[7] O
la_data_out[8] O
la_data_out[9] O
la_oenb[0] I
la_oenb[10] I
la_oenb[11] I
la_oenb[12] I
la_oenb[13] I
la_oenb[14] I
la_oenb[15] I
la_oenb[16] I
la_oenb[17] I
la_oenb[18] I
la_oenb[19] I
la_oenb[1] I
la_oenb[20] I
la_oenb[21] I
la_oenb[22] I
la_oenb[23] I
la_oenb[24] I
la_oenb[25] I
la_oenb[26] I
la_oenb[27] I
la_oenb[28] I
la_oenb[29] I
la_oenb[2] I
la_oenb[30] I
la_oenb[31] I
la_oenb[32] I
la_oenb[33] I
la_oenb[34] I
la_oenb[35] I
la_oenb[36] I
la_oenb[37] I
la_oenb[38] I
la_oenb[39] I
la_oenb[3] I
la_oenb[40] I
la_oenb[41] I
la_oenb[42] I
la_oenb[43] I
la_oenb[44] I
la_oenb[45] I
la_oenb[46] I
la_oenb[47] I
la_oenb[48] I
la_oenb[49] I
la_oenb[4] I
la_oenb[50] I
la_oenb[51] I
la_oenb[52] I
la_oenb[53] I
la_oenb[54] I
la_oenb[55] I
la_oenb[56] I
la_oenb[57] I
la_oenb[58] I
la_oenb[59] I
la_oenb[5] I
la_oenb[60] I
la_oenb[61] I
la_oenb[62] I
la_oenb[63] I
la_oenb[6] I
la_oenb[7] I
la_oenb[8] I
la_oenb[9] I
user_clock2 I
user_irq[0] O
user_irq[1] O
user_irq[2] O
wb_clk_i I
wb_rst_i I
wbs_ack_o O
wbs_adr_i[0] I
wbs_adr_i[10] I
wbs_adr_i[11] I
wbs_adr_i[12] I
wbs_adr_i[13] I
wbs_adr_i[14] I
wbs_adr_i[15] I
wbs_adr_i[16] I
wbs_adr_i[17] I
wbs_adr_i[18] I
wbs_adr_i[19] I
wbs_adr_i[1] I
wbs_adr_i[20] I
wbs_adr_i[21] I
wbs_adr_i[22] I
wbs_adr_i[23] I
wbs_adr_i[24] I
wbs_adr_i[25] I
wbs_adr_i[26] I
wbs_adr_i[27] I
wbs_adr_i[28] I
wbs_adr_i[29] I
wbs_adr_i[2] I
wbs_adr_i[30] I
wbs_adr_i[31] I
wbs_adr_i[3] I
wbs_adr_i[4] I
wbs_adr_i[5] I
wbs_adr_i[6] I
wbs_adr_i[7] I
wbs_adr_i[8] I
wbs_adr_i[9] I
wbs_cyc_i I
wbs_dat_i[0] I
wbs_dat_i[10] I
wbs_dat_i[11] I
wbs_dat_i[12] I
wbs_dat_i[13] I
wbs_dat_i[14] I
wbs_dat_i[15] I
wbs_dat_i[16] I
wbs_dat_i[17] I
wbs_dat_i[18] I
wbs_dat_i[19] I
wbs_dat_i[1] I
wbs_dat_i[20] I
wbs_dat_i[21] I
wbs_dat_i[22] I
wbs_dat_i[23] I
wbs_dat_i[24] I
wbs_dat_i[25] I
wbs_dat_i[26] I
wbs_dat_i[27] I
wbs_dat_i[28] I
wbs_dat_i[29] I
wbs_dat_i[2] I
wbs_dat_i[30] I
wbs_dat_i[31] I
wbs_dat_i[3] I
wbs_dat_i[4] I
wbs_dat_i[5] I
wbs_dat_i[6] I
wbs_dat_i[7] I
wbs_dat_i[8] I
wbs_dat_i[9] I
wbs_dat_o[0] O
wbs_dat_o[10] O
wbs_dat_o[11] O
wbs_dat_o[12] O
wbs_dat_o[13] O
wbs_dat_o[14] O
wbs_dat_o[15] O
wbs_dat_o[16] O
wbs_dat_o[17] O
wbs_dat_o[18] O
wbs_dat_o[19] O
wbs_dat_o[1] O
wbs_dat_o[20] O
wbs_dat_o[21] O
wbs_dat_o[22] O
wbs_dat_o[23] O
wbs_dat_o[24] O
wbs_dat_o[25] O
wbs_dat_o[26] O
wbs_dat_o[27] O
wbs_dat_o[28] O
wbs_dat_o[29] O
wbs_dat_o[2] O
wbs_dat_o[30] O
wbs_dat_o[31] O
wbs_dat_o[3] O
wbs_dat_o[4] O
wbs_dat_o[5] O
wbs_dat_o[6] O
wbs_dat_o[7] O
wbs_dat_o[8] O
wbs_dat_o[9] O
wbs_sel_i[0] I
wbs_sel_i[1] I
wbs_sel_i[2] I
wbs_sel_i[3] I
wbs_stb_i I
wbs_we_i I

*D_NET *1 0.017278
*CONN
*P io_in[0] I
*I *419:io_in[0] I *D alpha_soc
*CAP
1 io_in[0] 0.00387778
2 *419:io_in[0] 0.00353865
3 *1:11 0.00741643
4 *419:io_in[0] io_out[0] 0.00244519
*RES
1 io_in[0] *1:11 42.852 
2 *1:11 *419:io_in[0] 34.58 
*END

*D_NET *2 0.192543
*CONN
*P io_in[10] I
*I *419:io_in[10] I *D alpha_soc
*CAP
1 io_in[10] 0.00456197
2 *419:io_in[10] 0.000811905
3 *2:9 0.0100925
4 *2:7 0.0138425
5 *2:9 *36:9 0.00331739
6 *2:9 *37:9 0.0561425
7 *2:9 *40:9 0.103774
*RES
1 io_in[10] *2:7 41.576 
2 *2:7 *2:9 287.56 
3 *2:9 *419:io_in[10] 11.624 
*END

*D_NET *3 0.249792
*CONN
*P io_in[11] I
*I *419:io_in[11] I *D alpha_soc
*CAP
1 io_in[11] 0.00107771
2 *419:io_in[11] 0.00421599
3 *3:9 0.00827552
4 *3:7 0.00513724
5 *419:io_in[11] io_oeb[6] 0.000117377
6 *3:9 *78:9 0.107931
7 *3:9 *79:9 0.121841
8 *3:9 *112:9 0.00119684
*RES
1 io_in[11] *3:7 13.08 
2 *3:7 *3:9 318.76 
3 *3:9 *419:io_in[11] 40.12 
*END

*D_NET *4 0.252051
*CONN
*P io_in[12] I
*I *419:io_in[12] I *D alpha_soc
*CAP
1 io_in[12] 0.00452114
2 *419:io_in[12] 0.000745196
3 *4:9 0.00949253
4 *4:7 0.0132685
5 *4:9 *5:9 0.123166
6 *4:9 *40:9 0.100858
*RES
1 io_in[12] *4:7 41.992 
2 *4:7 *4:9 349.96 
3 *4:9 *419:io_in[12] 11.208 
*END

*D_NET *5 0.18522
*CONN
*P io_in[13] I
*I *419:io_in[13] I *D alpha_soc
*CAP
1 io_in[13] 0.00450071
2 *419:io_in[13] 0.000722589
3 *5:9 0.0265265
4 *5:7 0.0303046
5 *4:9 *5:9 0.123166
*RES
1 io_in[13] *5:7 42.2 
2 *5:7 *5:9 381.16 
3 *5:9 *419:io_in[13] 11 
*END

*D_NET *6 0.311153
*CONN
*P io_in[14] I
*I *419:io_in[14] I *D alpha_soc
*CAP
1 io_in[14] 0.00143005
2 *419:io_in[14] 0.0041627
3 *6:9 0.0115519
4 *6:7 0.00881926
5 *6:9 *42:9 0.12577
6 *6:9 *82:9 0.159419
*RES
1 io_in[14] *6:7 13.912 
2 *6:7 *6:9 412.36 
3 *6:9 *419:io_in[14] 39.288 
*END

*D_NET *7 0.113774
*CONN
*P io_in[15] I
*I *419:io_in[15] I *D alpha_soc
*CAP
1 io_in[15] 0.00113656
2 *419:io_in[15] 0.0497856
3 *7:11 0.0497856
4 *7:9 0.00490069
5 *7:7 0.00603725
6 *7:9 *83:9 0.00212867
*RES
1 io_in[15] *7:7 14.12 
2 *7:7 *7:9 46.488 
3 *7:9 *7:11 4.5 
4 *7:11 *419:io_in[15] 420.836 
*END

*D_NET *8 0.110684
*CONN
*P io_in[16] I
*I *419:io_in[16] I *D alpha_soc
*CAP
1 io_in[16] 0.00503099
2 *419:io_in[16] 0.00131715
3 *8:13 0.0503049
4 *8:11 0.0489878
5 *8:9 0.00503099
6 *8:9 *45:9 1.23478e-05
*RES
1 io_in[16] *8:9 48.544 
2 *8:9 *8:11 4.5 
3 *8:11 *8:13 414.024 
4 *8:13 *419:io_in[16] 19.972 
*END

*D_NET *9 0.10945
*CONN
*P io_in[17] I
*I *419:io_in[17] I *D alpha_soc
*CAP
1 io_in[17] 0.00429243
2 *419:io_in[17] 0.00149354
3 *9:13 0.0504328
4 *9:11 0.0532317
*RES
1 io_in[17] *9:11 45.972 
2 *9:11 *9:13 413.608 
3 *9:13 *419:io_in[17] 19.348 
*END

*D_NET *10 0.107816
*CONN
*P io_in[18] I
*I *419:io_in[18] I *D alpha_soc
*CAP
1 io_in[18] 0.00345708
2 *419:io_in[18] 0.00151174
3 *10:13 0.050451
4 *10:11 0.0523964
*RES
1 io_in[18] *10:11 38.484 
2 *10:11 *10:13 413.608 
3 *10:13 *419:io_in[18] 18.724 
*END

*D_NET *11 0.105478
*CONN
*P io_in[19] I
*I *419:io_in[19] I *D alpha_soc
*CAP
1 io_in[19] 0.00295317
2 *419:io_in[19] 0.0497856
3 *11:11 0.0527388
*RES
1 io_in[19] *11:11 32.66 
2 *11:11 *419:io_in[19] 420.836 
*END

*D_NET *12 0.0119652
*CONN
*P io_in[1] I
*I *419:io_in[1] I *D alpha_soc
*CAP
1 io_in[1] 0.00304458
2 *419:io_in[1] 0.00293802
3 *12:11 0.00598261
*RES
1 io_in[1] *12:11 33.076 
2 *12:11 *419:io_in[1] 26.884 
*END

*D_NET *13 0.10365
*CONN
*P io_in[20] I
*I *419:io_in[20] I *D alpha_soc
*CAP
1 io_in[20] 0.00118595
2 *419:io_in[20] 0.00153556
3 *13:13 0.050639
4 *13:11 0.0502894
*RES
1 io_in[20] *13:11 18.932 
2 *13:11 *13:13 415.064 
3 *13:13 *419:io_in[20] 20.596 
*END

*D_NET *14 0.102429
*CONN
*P io_in[21] I
*I *419:io_in[21] I *D alpha_soc
*CAP
1 io_in[21] 0.0502029
2 *419:io_in[21] 0.00101181
3 *14:5 0.0512147
*RES
1 io_in[21] *14:5 424.58 
2 *14:5 *419:io_in[21] 17.268 
*END

*D_NET *15 0.104193
*CONN
*P io_in[22] I
*I *419:io_in[22] I *D alpha_soc
*CAP
1 io_in[22] 0.0500332
2 *419:io_in[22] 0.00206317
3 *15:5 0.0520963
*RES
1 io_in[22] *15:5 423.124 
2 *15:5 *419:io_in[22] 26.836 
*END

*D_NET *16 0.105956
*CONN
*P io_in[23] I
*I *419:io_in[23] I *D alpha_soc
*CAP
1 io_in[23] 0.0502029
2 *419:io_in[23] 0.00277511
3 *16:5 0.052978
*RES
1 io_in[23] *16:5 424.58 
2 *16:5 *419:io_in[23] 33.492 
*END

*D_NET *17 0.203744
*CONN
*P io_in[24] I
*I *419:io_in[24] I *D alpha_soc
*CAP
1 io_in[24] 0.000632163
2 *419:io_in[24] 0.00238772
3 *17:13 0.0241244
4 *17:11 0.0217693
5 *17:9 0.00590025
6 *17:7 0.00649976
7 *17:13 *19:9 0
8 *17:13 *55:17 0.137004
9 *17:13 *56:17 0.00542624
*RES
1 io_in[24] *17:7 10.168 
2 *17:7 *17:9 51.4169 
3 *17:9 *17:11 0.312 
4 *17:11 *17:13 374.567 
5 *17:13 *419:io_in[24] 20.776 
*END

*D_NET *18 0.114704
*CONN
*P io_in[25] I
*I *419:io_in[25] I *D alpha_soc
*CAP
1 io_in[25] 0.00381695
2 *419:io_in[25] 0.000247834
3 *18:17 0.0412931
4 *18:15 0.0427464
5 *18:11 0.00551806
6 *18:11 *55:17 0
7 *18:17 io_oeb[23] 0.0210819
*RES
1 io_in[25] *18:11 42.228 
2 *18:11 *18:15 17.084 
3 *18:15 *18:17 367.432 
4 *18:17 *419:io_in[25] 6.632 
*END

*D_NET *19 0.0870493
*CONN
*P io_in[26] I
*I *419:io_in[26] I *D alpha_soc
*CAP
1 io_in[26] 0.000451311
2 *419:io_in[26] 0.00249364
3 *19:9 0.0430734
4 *19:7 0.041031
5 *19:9 *56:17 0
6 *17:13 *19:9 0
*RES
1 io_in[26] *19:7 8.504 
2 *19:7 *19:9 360.984 
3 *19:9 *419:io_in[26] 22.232 
*END

*D_NET *20 0.222265
*CONN
*P io_in[27] I
*I *419:io_in[27] I *D alpha_soc
*CAP
1 io_in[27] 0.000974207
2 *419:io_in[27] 0.00183482
3 *20:17 0.00495734
4 *20:9 0.00858654
5 *20:7 0.00643823
6 *20:9 *56:17 0.00466313
7 *20:9 *57:17 0.00458428
8 *20:9 *94:17 0.0734735
9 *20:9 *96:17 0.105401
10 *20:17 io_oeb[30] 0
11 *20:17 *24:9 0.0021577
12 *20:17 *57:9 0.00379306
13 *20:17 *96:9 0.00540102
*RES
1 io_in[27] *20:7 10.792 
2 *20:7 *20:9 289.848 
3 *20:9 *20:17 49.976 
4 *20:17 *419:io_in[27] 17.864 
*END

*D_NET *21 0.228196
*CONN
*P io_in[28] I
*I *419:io_in[28] I *D alpha_soc
*CAP
1 io_in[28] 0.00118008
2 *419:io_in[28] 0.00205491
3 *21:9 0.00587798
4 *21:7 0.00500315
5 *21:9 *25:9 0.00136187
6 *21:9 *58:9 0.112282
7 *21:9 *59:9 0.0973662
8 *21:9 *63:9 0.0030692
*RES
1 io_in[28] *21:7 11.832 
2 *21:7 *21:9 296.088 
3 *21:9 *419:io_in[28] 18.904 
*END

*D_NET *22 0.207804
*CONN
*P io_in[29] I
*I *419:io_in[29] I *D alpha_soc
*CAP
1 io_in[29] 0.00109486
2 *419:io_in[29] 0.00196666
3 *22:9 0.00439476
4 *22:7 0.00352296
5 *419:io_in[29] io_out[32] 0
6 *22:7 *55:15 0
7 *22:9 *26:9 0.00268321
8 *22:9 *59:9 0.0992202
9 *22:9 *98:9 0.0949219
*RES
1 io_in[29] *22:7 12.248 
2 *22:7 *22:9 263.64 
3 *22:9 *419:io_in[29] 18.488 
*END

*D_NET *23 0.0255967
*CONN
*P io_in[2] I
*I *419:io_in[2] I *D alpha_soc
*CAP
1 io_in[2] 0.00443622
2 *419:io_in[2] 0.00374112
3 *23:7 0.00817734
4 *419:io_in[2] *50:11 0.00542612
5 *419:io_in[2] *61:9 0.00381592
*RES
1 io_in[2] *23:7 42.2 
2 *23:7 *419:io_in[2] 48.96 
*END

*D_NET *24 0.175505
*CONN
*P io_in[30] I
*I *419:io_in[30] I *D alpha_soc
*CAP
1 io_in[30] 0.0011543
2 *419:io_in[30] 0.00185581
3 *24:9 0.0060767
4 *24:7 0.00537518
5 *24:7 *57:15 0
6 *24:9 *26:9 0.00113205
7 *24:9 *60:9 0.0862561
8 *24:9 *62:9 0.0714968
9 *20:17 *24:9 0.0021577
*RES
1 io_in[30] *24:7 12.872 
2 *24:7 *24:9 231.192 
3 *24:9 *419:io_in[30] 17.864 
*END

*D_NET *25 0.107304
*CONN
*P io_in[31] I
*I *419:io_in[31] I *D alpha_soc
*CAP
1 io_in[31] 0.00075293
2 *419:io_in[31] 0.00240063
3 *25:9 0.0138882
4 *25:7 0.0122405
5 *25:7 *96:15 0.000189027
6 *25:9 *58:9 0.0179751
7 *25:9 *63:9 0.0584585
8 *25:9 *96:17 3.69833e-05
9 *21:9 *25:9 0.00136187
*RES
1 io_in[31] *25:7 11.416 
2 *25:7 *25:9 198.744 
3 *25:9 *419:io_in[31] 19.32 
*END

*D_NET *26 0.120677
*CONN
*P io_in[32] I
*I *419:io_in[32] I *D alpha_soc
*CAP
1 io_in[32] 0.000856047
2 *419:io_in[32] 0.00196882
3 *26:9 0.00394043
4 *26:7 0.00282765
5 *26:9 *27:9 0.0350846
6 *26:9 *28:9 0.00365639
7 *26:9 *59:9 0.00492089
8 *26:9 *60:9 0.00131334
9 *26:9 *62:9 0.000118136
10 *26:9 *63:9 0.0603615
11 *26:9 *98:9 0.00181432
12 *22:9 *26:9 0.00268321
13 *24:9 *26:9 0.00113205
*RES
1 io_in[32] *26:7 11.832 
2 *26:7 *26:9 166.296 
3 *26:9 *419:io_in[32] 18.904 
*END

*D_NET *27 0.0965419
*CONN
*P io_in[33] I
*I *419:io_in[33] I *D alpha_soc
*CAP
1 io_in[33] 0.000900169
2 *419:io_in[33] 0.00190319
3 *27:9 0.0030761
4 *27:7 0.00207308
5 *27:9 *28:9 0.00753045
6 *27:9 *62:9 0.00185169
7 *27:9 *66:9 0.00112823
8 *27:9 *103:9 0.0429944
9 *26:9 *27:9 0.0350846
*RES
1 io_in[33] *27:7 12.04 
2 *27:7 *27:9 133.848 
3 *27:9 *419:io_in[33] 18.696 
*END

*D_NET *28 0.0482337
*CONN
*P io_in[34] I
*I *419:io_in[34] I *D alpha_soc
*CAP
1 io_in[34] 0.000790409
2 *419:io_in[34] 0.00194842
3 *28:9 0.00793474
4 *28:7 0.00677673
5 *28:9 *66:9 0.0195966
6 *26:9 *28:9 0.00365639
7 *27:9 *28:9 0.00753045
*RES
1 io_in[34] *28:7 11.624 
2 *28:7 *28:9 101.4 
3 *28:9 *419:io_in[34] 19.112 
*END

*D_NET *29 0.0375927
*CONN
*P io_in[35] I
*I *419:io_in[35] I *D alpha_soc
*CAP
1 io_in[35] 0.000878653
2 *419:io_in[35] 0.00186017
3 *29:9 0.00585626
4 *29:7 0.00487474
5 *29:9 *66:9 0.0213541
6 *29:9 *105:9 0.00276872
*RES
1 io_in[35] *29:7 12.04 
2 *29:7 *29:9 68.952 
3 *29:9 *419:io_in[35] 18.696 
*END

*D_NET *30 0.0206445
*CONN
*P io_in[36] I
*I *419:io_in[36] I *D alpha_soc
*CAP
1 io_in[36] 0.00226602
2 *419:io_in[36] 0.00602187
3 *30:7 0.00828789
4 *419:io_in[36] *106:11 0.00406873
*RES
1 io_in[36] *30:7 22.232 
2 *30:7 *419:io_in[36] 45.008 
*END

*D_NET *31 0.00670797
*CONN
*P io_in[37] I
*I *419:io_in[37] I *D alpha_soc
*CAP
1 io_in[37] 0.00335399
2 *419:io_in[37] 0.00335399
*RES
1 io_in[37] *419:io_in[37] 34.792 
*END

*D_NET *32 0.0423677
*CONN
*P io_in[3] I
*I *419:io_in[3] I *D alpha_soc
*CAP
1 io_in[3] 0.00434578
2 *419:io_in[3] 0.000834512
3 *32:9 0.00500115
4 *32:7 0.00851242
5 *32:9 *61:9 0.00166588
6 *32:9 *108:9 0.022008
*RES
1 io_in[3] *32:7 41.368 
2 *32:7 *32:9 69.16 
3 *32:9 *419:io_in[3] 11.832 
*END

*D_NET *33 0.0335875
*CONN
*P io_in[4] I
*I *419:io_in[4] I *D alpha_soc
*CAP
1 io_in[4] 0.00121224
2 *419:io_in[4] 0.00401108
3 *33:9 0.0146282
4 *33:7 0.0118294
5 *419:io_in[4] io_oeb[2] 0
6 *33:9 *35:9 0.0019066
*RES
1 io_in[4] *33:7 14.12 
2 *33:7 *33:9 100.36 
3 *33:9 *419:io_in[4] 39.08 
*END

*D_NET *34 0.0947078
*CONN
*P io_in[5] I
*I *419:io_in[5] I *D alpha_soc
*CAP
1 io_in[5] 0.00454261
2 *419:io_in[5] 0.000766711
3 *34:9 0.00520165
4 *34:7 0.00897755
5 *34:9 *36:9 0.0186539
6 *34:9 *37:9 0.000510364
7 *34:9 *70:9 0.0133307
8 *34:9 *71:9 0.0427243
*RES
1 io_in[5] *34:7 41.992 
2 *34:7 *34:9 131.56 
3 *34:9 *419:io_in[5] 11.208 
*END

*D_NET *35 0.0874081
*CONN
*P io_in[6] I
*I *419:io_in[6] I *D alpha_soc
*CAP
1 io_in[6] 0.00114442
2 *419:io_in[6] 0.00412187
3 *35:9 0.0132287
4 *35:7 0.0102513
5 *35:9 *38:9 0.00295989
6 *35:9 *73:9 0.0537953
7 *33:9 *35:9 0.0019066
*RES
1 io_in[6] *35:7 13.496 
2 *35:7 *35:9 162.76 
3 *35:9 *419:io_in[6] 39.704 
*END

*D_NET *36 0.073106
*CONN
*P io_in[7] I
*I *419:io_in[7] I *D alpha_soc
*CAP
1 io_in[7] 0.00467278
2 *419:io_in[7] 0.000722589
3 *36:9 0.0141342
4 *36:7 0.0180844
5 *36:9 *37:9 0.00682593
6 *36:9 *40:9 0.00669475
7 *2:9 *36:9 0.00331739
8 *34:9 *36:9 0.0186539
*RES
1 io_in[7] *36:7 42.2 
2 *36:7 *36:9 193.96 
3 *36:9 *419:io_in[7] 11 
*END

*D_NET *37 0.103837
*CONN
*P io_in[8] I
*I *419:io_in[8] I *D alpha_soc
*CAP
1 io_in[8] 0.00429561
2 *419:io_in[8] 0.000856028
3 *37:9 0.015618
4 *37:7 0.0190575
5 *37:7 *81:7 0.00053129
6 *2:9 *37:9 0.0561425
7 *34:9 *37:9 0.000510364
8 *36:9 *37:9 0.00682593
*RES
1 io_in[8] *37:7 41.368 
2 *37:7 *37:9 225.16 
3 *37:9 *419:io_in[8] 11.832 
*END

*D_NET *38 0.129726
*CONN
*P io_in[9] I
*I *419:io_in[9] I *D alpha_soc
*CAP
1 io_in[9] 0.00125359
2 *419:io_in[9] 0.00535615
3 *38:9 0.0213945
4 *38:7 0.017292
5 *38:9 *73:9 0.00149951
6 *38:9 *78:9 0.0799707
7 *35:9 *38:9 0.00295989
*RES
1 io_in[9] *38:7 12.664 
2 *38:7 *38:9 256.36 
3 *38:9 *419:io_in[9] 40.536 
*END

*D_NET *39 0.0110004
*CONN
*P io_oeb[0] O
*I *419:io_oeb[0] O *D alpha_soc
*CAP
1 io_oeb[0] 0.00119074
2 *419:io_oeb[0] 0.00430945
3 *39:11 0.00550019
*RES
1 *419:io_oeb[0] *39:11 47.012 
2 *39:11 io_oeb[0] 9.62 
*END

*D_NET *40 0.231524
*CONN
*P io_oeb[10] O
*I *419:io_oeb[10] O *D alpha_soc
*CAP
1 io_oeb[10] 0.00456306
2 *419:io_oeb[10] 0.000789299
3 *40:9 0.00930954
4 *40:7 0.00553578
5 *2:9 *40:9 0.103774
6 *4:9 *40:9 0.100858
7 *36:9 *40:9 0.00669475
*RES
1 *419:io_oeb[10] *40:7 11.416 
2 *40:7 *40:9 308.568 
3 *40:9 io_oeb[10] 41.784 
*END

*D_NET *41 0.13555
*CONN
*P io_oeb[11] O
*I *419:io_oeb[11] O *D alpha_soc
*CAP
1 io_oeb[11] 0.00420465
2 *419:io_oeb[11] 0.00112621
3 *41:9 0.0330984
4 *41:7 0.0300199
5 *41:9 *114:9 0.0671008
*RES
1 *419:io_oeb[11] *41:7 14.12 
2 *41:7 *41:9 339.56 
3 *41:9 io_oeb[11] 39.08 
*END

*D_NET *42 0.289798
*CONN
*P io_oeb[12] O
*I *419:io_oeb[12] O *D alpha_soc
*CAP
1 io_oeb[12] 0.00114553
2 *419:io_oeb[12] 0.00418531
3 *42:9 0.00410514
4 *42:7 0.00714492
5 *42:9 *80:9 0.138521
6 *42:9 *113:9 0.00892587
7 *6:9 *42:9 0.12577
*RES
1 *419:io_oeb[12] *42:7 39.496 
2 *42:7 *42:9 370.76 
3 *42:9 io_oeb[12] 13.704 
*END

*D_NET *43 0.100658
*CONN
*P io_oeb[13] O
*I *419:io_oeb[13] O *D alpha_soc
*CAP
1 io_oeb[13] 0.00344043
2 *419:io_oeb[13] 0.00186894
3 *43:9 0.04846
4 *43:7 0.0468885
*RES
1 *419:io_oeb[13] *43:7 20.36 
2 *43:7 *43:9 401.96 
3 *43:9 io_oeb[13] 32.84 
*END

*D_NET *44 0.107466
*CONN
*P io_oeb[14] O
*I *419:io_oeb[14] O *D alpha_soc
*CAP
1 io_oeb[14] 0.00303682
2 *419:io_oeb[14] 0.00222953
3 *44:9 0.0515033
4 *44:7 0.050696
*RES
1 *419:io_oeb[14] *44:7 23.48 
2 *44:7 *44:9 433.16 
3 *44:9 io_oeb[14] 29.72 
*END

*D_NET *45 0.112228
*CONN
*P io_oeb[15] O
*I *419:io_oeb[15] O *D alpha_soc
*CAP
1 io_oeb[15] 0.00115695
2 *419:io_oeb[15] 0.0497856
3 *45:9 0.00576726
4 *45:5 0.0543959
5 *45:9 *83:9 0.00110993
6 *8:9 *45:9 1.23478e-05
*RES
1 *419:io_oeb[15] *45:5 420.836 
2 *45:5 *45:9 45.58 
3 *45:9 io_oeb[15] 14.12 
*END

*D_NET *46 0.109678
*CONN
*P io_oeb[16] O
*I *419:io_oeb[16] O *D alpha_soc
*CAP
1 io_oeb[16] 0.00113656
2 *419:io_oeb[16] 0.0497856
3 *46:11 0.00505339
4 *46:5 0.0537024
*RES
1 *419:io_oeb[16] *46:5 420.836 
2 *46:5 *46:11 41.968 
3 *46:11 io_oeb[16] 9.62 
*END

*D_NET *47 0.107616
*CONN
*P io_oeb[17] O
*I *419:io_oeb[17] O *D alpha_soc
*CAP
1 io_oeb[17] 0.00402224
2 *419:io_oeb[17] 0.0497856
3 *47:5 0.0538079
*RES
1 *419:io_oeb[17] *47:5 420.836 
2 *47:5 io_oeb[17] 43.684 
*END

*D_NET *48 0.105549
*CONN
*P io_oeb[18] O
*I *419:io_oeb[18] O *D alpha_soc
*CAP
1 io_oeb[18] 0.0029889
2 *419:io_oeb[18] 0.0497856
3 *48:5 0.0527745
*RES
1 *419:io_oeb[18] *48:5 420.836 
2 *48:5 io_oeb[18] 35.364 
*END

*D_NET *49 0.103786
*CONN
*P io_oeb[19] O
*I *419:io_oeb[19] O *D alpha_soc
*CAP
1 io_oeb[19] 0.00193754
2 *419:io_oeb[19] 0.0499553
3 *49:5 0.0518929
*RES
1 *419:io_oeb[19] *49:5 422.292 
2 *49:5 io_oeb[19] 25.796 
*END

*D_NET *50 0.0212228
*CONN
*P io_oeb[1] O
*I *419:io_oeb[1] O *D alpha_soc
*CAP
1 io_oeb[1] 0.00344728
2 *419:io_oeb[1] 0.00330804
3 *50:11 0.00675532
4 io_oeb[1] *99:7 0.00228607
5 *419:io_in[2] *50:11 0.00542612
*RES
1 *419:io_oeb[1] *50:11 43.268 
2 *50:11 io_oeb[1] 37.492 
*END

*D_NET *51 0.101882
*CONN
*P io_oeb[20] O
*I *419:io_oeb[20] O *D alpha_soc
*CAP
1 io_oeb[20] 0.00172132
2 *419:io_oeb[20] 0.0492197
3 *51:5 0.050941
*RES
1 *419:io_oeb[20] *51:5 416.156 
2 *51:5 io_oeb[20] 14.82 
*END

*D_NET *52 0.103605
*CONN
*P io_oeb[21] O
*I *419:io_oeb[21] O *D alpha_soc
*CAP
1 io_oeb[21] 0.0500332
2 *419:io_oeb[21] 0.00176928
3 *52:11 0.0518024
*RES
1 *419:io_oeb[21] *52:11 24.132 
2 *52:11 io_oeb[21] 423.124 
*END

*D_NET *53 0.105323
*CONN
*P io_oeb[22] O
*I *419:io_oeb[22] O *D alpha_soc
*CAP
1 io_oeb[22] 0.0502029
2 *419:io_oeb[22] 0.00245862
3 *53:11 0.0526615
*RES
1 *419:io_oeb[22] *53:11 30.58 
2 *53:11 io_oeb[22] 424.58 
*END

*D_NET *54 0.128213
*CONN
*P io_oeb[23] O
*I *419:io_oeb[23] O *D alpha_soc
*CAP
1 io_oeb[23] 0.0502029
2 *419:io_oeb[23] 0.00336288
3 *54:11 0.0535657
4 *18:17 io_oeb[23] 0.0210819
*RES
1 *419:io_oeb[23] *54:11 38.9 
2 *54:11 io_oeb[23] 424.58 
*END

*D_NET *55 0.285956
*CONN
*P io_oeb[24] O
*I *419:io_oeb[24] O *D alpha_soc
*CAP
1 io_oeb[24] 0.000653679
2 *419:io_oeb[24] 0.00179029