*SPEF "ieee 1481-1999"
*DESIGN "user_project_wrapper"
*DATE "11:11:11 Fri 11 11, 1111"
*VENDOR "OpenRCX"
*PROGRAM "Parallel Extraction"
*VERSION "1.0"
*DESIGN_FLOW "NAME_SCOPE LOCAL" "PIN_CAP NONE"
*DIVIDER /
*DELIMITER :
*BUS_DELIMITER []
*T_UNIT 1 NS
*C_UNIT 1 PF
*R_UNIT 1 OHM
*L_UNIT 1 HENRY

*NAME_MAP
*1 io_in[0]
*2 io_in[10]
*3 io_in[11]
*4 io_in[12]
*5 io_in[13]
*6 io_in[14]
*7 io_in[15]
*8 io_in[16]
*9 io_in[17]
*10 io_in[18]
*11 io_in[19]
*12 io_in[1]
*13 io_in[20]
*14 io_in[21]
*15 io_in[22]
*16 io_in[23]
*17 io_in[24]
*18 io_in[25]
*19 io_in[26]
*20 io_in[27]
*21 io_in[28]
*22 io_in[29]
*23 io_in[2]
*24 io_in[30]
*25 io_in[31]
*26 io_in[32]
*27 io_in[33]
*28 io_in[34]
*29 io_in[35]
*30 io_in[36]
*31 io_in[37]
*32 io_in[3]
*33 io_in[4]
*34 io_in[5]
*35 io_in[6]
*36 io_in[7]
*37 io_in[8]
*38 io_in[9]
*39 io_oeb[0]
*40 io_oeb[10]
*41 io_oeb[11]
*42 io_oeb[12]
*43 io_oeb[13]
*44 io_oeb[14]
*45 io_oeb[15]
*46 io_oeb[16]
*47 io_oeb[17]
*48 io_oeb[18]
*49 io_oeb[19]
*50 io_oeb[1]
*51 io_oeb[20]
*52 io_oeb[21]
*53 io_oeb[22]
*54 io_oeb[23]
*55 io_oeb[24]
*56 io_oeb[25]
*57 io_oeb[26]
*58 io_oeb[27]
*59 io_oeb[28]
*60 io_oeb[29]
*61 io_oeb[2]
*62 io_oeb[30]
*63 io_oeb[31]
*64 io_oeb[32]
*65 io_oeb[33]
*66 io_oeb[34]
*67 io_oeb[35]
*68 io_oeb[36]
*69 io_oeb[37]
*70 io_oeb[3]
*71 io_oeb[4]
*72 io_oeb[5]
*73 io_oeb[6]
*74 io_oeb[7]
*75 io_oeb[8]
*76 io_oeb[9]
*77 io_out[0]
*78 io_out[10]
*79 io_out[11]
*80 io_out[12]
*81 io_out[13]
*82 io_out[14]
*83 io_out[15]
*84 io_out[16]
*85 io_out[17]
*86 io_out[18]
*87 io_out[19]
*88 io_out[1]
*89 io_out[20]
*90 io_out[21]
*91 io_out[22]
*92 io_out[23]
*93 io_out[24]
*94 io_out[25]
*95 io_out[26]
*96 io_out[27]
*97 io_out[28]
*98 io_out[29]
*99 io_out[2]
*100 io_out[30]
*101 io_out[31]
*102 io_out[32]
*103 io_out[33]
*104 io_out[34]
*105 io_out[35]
*106 io_out[36]
*107 io_out[37]
*108 io_out[3]
*109 io_out[4]
*110 io_out[5]
*111 io_out[6]
*112 io_out[7]
*113 io_out[8]
*114 io_out[9]
*115 la_data_in[0]
*116 la_data_in[10]
*117 la_data_in[11]
*118 la_data_in[12]
*119 la_data_in[13]
*120 la_data_in[14]
*121 la_data_in[15]
*122 la_data_in[16]
*123 la_data_in[17]
*124 la_data_in[18]
*125 la_data_in[19]
*126 la_data_in[1]
*127 la_data_in[20]
*128 la_data_in[21]
*129 la_data_in[22]
*130 la_data_in[23]
*131 la_data_in[24]
*132 la_data_in[25]
*133 la_data_in[26]
*134 la_data_in[27]
*135 la_data_in[28]
*136 la_data_in[29]
*137 la_data_in[2]
*138 la_data_in[30]
*139 la_data_in[31]
*140 la_data_in[32]
*141 la_data_in[33]
*142 la_data_in[34]
*143 la_data_in[35]
*144 la_data_in[36]
*145 la_data_in[37]
*146 la_data_in[38]
*147 la_data_in[39]
*148 la_data_in[3]
*149 la_data_in[40]
*150 la_data_in[41]
*151 la_data_in[42]
*152 la_data_in[43]
*153 la_data_in[44]
*154 la_data_in[45]
*155 la_data_in[46]
*156 la_data_in[47]
*157 la_data_in[48]
*158 la_data_in[49]
*159 la_data_in[4]
*160 la_data_in[50]
*161 la_data_in[51]
*162 la_data_in[52]
*163 la_data_in[53]
*164 la_data_in[54]
*165 la_data_in[55]
*166 la_data_in[56]
*167 la_data_in[57]
*168 la_data_in[58]
*169 la_data_in[59]
*170 la_data_in[5]
*171 la_data_in[60]
*172 la_data_in[61]
*173 la_data_in[62]
*174 la_data_in[63]
*175 la_data_in[6]
*176 la_data_in[7]
*177 la_data_in[8]
*178 la_data_in[9]
*179 la_data_out[0]
*180 la_data_out[10]
*181 la_data_out[11]
*182 la_data_out[12]
*183 la_data_out[13]
*184 la_data_out[14]
*185 la_data_out[15]
*186 la_data_out[16]
*187 la_data_out[17]
*188 la_data_out[18]
*189 la_data_out[19]
*190 la_data_out[1]
*191 la_data_out[20]
*192 la_data_out[21]
*193 la_data_out[22]
*194 la_data_out[23]
*195 la_data_out[24]
*196 la_data_out[25]
*197 la_data_out[26]
*198 la_data_out[27]
*199 la_data_out[28]
*200 la_data_out[29]
*201 la_data_out[2]
*202 la_data_out[30]
*203 la_data_out[31]
*204 la_data_out[32]
*205 la_data_out[33]
*206 la_data_out[34]
*207 la_data_out[35]
*208 la_data_out[36]
*209 la_data_out[37]
*210 la_data_out[38]
*211 la_data_out[39]
*212 la_data_out[3]
*213 la_data_out[40]
*214 la_data_out[41]
*215 la_data_out[42]
*216 la_data_out[43]
*217 la_data_out[44]
*218 la_data_out[45]
*219 la_data_out[46]
*220 la_data_out[47]
*221 la_data_out[48]
*222 la_data_out[49]
*223 la_data_out[4]
*224 la_data_out[50]
*225 la_data_out[51]
*226 la_data_out[52]
*227 la_data_out[53]
*228 la_data_out[54]
*229 la_data_out[55]
*230 la_data_out[56]
*231 la_data_out[57]
*232 la_data_out[58]
*233 la_data_out[59]
*234 la_data_out[5]
*235 la_data_out[60]
*236 la_data_out[61]
*237 la_data_out[62]
*238 la_data_out[63]
*239 la_data_out[6]
*240 la_data_out[7]
*241 la_data_out[8]
*242 la_data_out[9]
*243 la_oenb[0]
*244 la_oenb[10]
*245 la_oenb[11]
*246 la_oenb[12]
*247 la_oenb[13]
*248 la_oenb[14]
*249 la_oenb[15]
*250 la_oenb[16]
*251 la_oenb[17]
*252 la_oenb[18]
*253 la_oenb[19]
*254 la_oenb[1]
*255 la_oenb[20]
*256 la_oenb[21]
*257 la_oenb[22]
*258 la_oenb[23]
*259 la_oenb[24]
*260 la_oenb[25]
*261 la_oenb[26]
*262 la_oenb[27]
*263 la_oenb[28]
*264 la_oenb[29]
*265 la_oenb[2]
*266 la_oenb[30]
*267 la_oenb[31]
*268 la_oenb[32]
*269 la_oenb[33]
*270 la_oenb[34]
*271 la_oenb[35]
*272 la_oenb[36]
*273 la_oenb[37]
*274 la_oenb[38]
*275 la_oenb[39]
*276 la_oenb[3]
*277 la_oenb[40]
*278 la_oenb[41]
*279 la_oenb[42]
*280 la_oenb[43]
*281 la_oenb[44]
*282 la_oenb[45]
*283 la_oenb[46]
*284 la_oenb[47]
*285 la_oenb[48]
*286 la_oenb[49]
*287 la_oenb[4]
*288 la_oenb[50]
*289 la_oenb[51]
*290 la_oenb[52]
*291 la_oenb[53]
*292 la_oenb[54]
*293 la_oenb[55]
*294 la_oenb[56]
*295 la_oenb[57]
*296 la_oenb[58]
*297 la_oenb[59]
*298 la_oenb[5]
*299 la_oenb[60]
*300 la_oenb[61]
*301 la_oenb[62]
*302 la_oenb[63]
*303 la_oenb[6]
*304 la_oenb[7]
*305 la_oenb[8]
*306 la_oenb[9]
*307 user_clock2
*308 user_irq[0]
*309 user_irq[1]
*310 user_irq[2]
*313 wb_clk_i
*314 wb_rst_i
*315 wbs_ack_o
*316 wbs_adr_i[0]
*317 wbs_adr_i[10]
*318 wbs_adr_i[11]
*319 wbs_adr_i[12]
*320 wbs_adr_i[13]
*321 wbs_adr_i[14]
*322 wbs_adr_i[15]
*323 wbs_adr_i[16]
*324 wbs_adr_i[17]
*325 wbs_adr_i[18]
*326 wbs_adr_i[19]
*327 wbs_adr_i[1]
*328 wbs_adr_i[20]
*329 wbs_adr_i[21]
*330 wbs_adr_i[22]
*331 wbs_adr_i[23]
*332 wbs_adr_i[24]
*333 wbs_adr_i[25]
*334 wbs_adr_i[26]
*335 wbs_adr_i[27]
*336 wbs_adr_i[28]
*337 wbs_adr_i[29]
*338 wbs_adr_i[2]
*339 wbs_adr_i[30]
*340 wbs_adr_i[31]
*341 wbs_adr_i[3]
*342 wbs_adr_i[4]
*343 wbs_adr_i[5]
*344 wbs_adr_i[6]
*345 wbs_adr_i[7]
*346 wbs_adr_i[8]
*347 wbs_adr_i[9]
*348 wbs_cyc_i
*349 wbs_dat_i[0]
*350 wbs_dat_i[10]
*351 wbs_dat_i[11]
*352 wbs_dat_i[12]
*353 wbs_dat_i[13]
*354 wbs_dat_i[14]
*355 wbs_dat_i[15]
*356 wbs_dat_i[16]
*357 wbs_dat_i[17]
*358 wbs_dat_i[18]
*359 wbs_dat_i[19]
*360 wbs_dat_i[1]
*361 wbs_dat_i[20]
*362 wbs_dat_i[21]
*363 wbs_dat_i[22]
*364 wbs_dat_i[23]
*365 wbs_dat_i[24]
*366 wbs_dat_i[25]
*367 wbs_dat_i[26]
*368 wbs_dat_i[27]
*369 wbs_dat_i[28]
*370 wbs_dat_i[29]
*371 wbs_dat_i[2]
*372 wbs_dat_i[30]
*373 wbs_dat_i[31]
*374 wbs_dat_i[3]
*375 wbs_dat_i[4]
*376 wbs_dat_i[5]
*377 wbs_dat_i[6]
*378 wbs_dat_i[7]
*379 wbs_dat_i[8]
*380 wbs_dat_i[9]
*381 wbs_dat_o[0]
*382 wbs_dat_o[10]
*383 wbs_dat_o[11]
*384 wbs_dat_o[12]
*385 wbs_dat_o[13]
*386 wbs_dat_o[14]
*387 wbs_dat_o[15]
*388 wbs_dat_o[16]
*389 wbs_dat_o[17]
*390 wbs_dat_o[18]
*391 wbs_dat_o[19]
*392 wbs_dat_o[1]
*393 wbs_dat_o[20]
*394 wbs_dat_o[21]
*395 wbs_dat_o[22]
*396 wbs_dat_o[23]
*397 wbs_dat_o[24]
*398 wbs_dat_o[25]
*399 wbs_dat_o[26]
*400 wbs_dat_o[27]
*401 wbs_dat_o[28]
*402 wbs_dat_o[29]
*403 wbs_dat_o[2]
*404 wbs_dat_o[30]
*405 wbs_dat_o[31]
*406 wbs_dat_o[3]
*407 wbs_dat_o[4]
*408 wbs_dat_o[5]
*409 wbs_dat_o[6]
*410 wbs_dat_o[7]
*411 wbs_dat_o[8]
*412 wbs_dat_o[9]
*413 wbs_sel_i[0]
*414 wbs_sel_i[1]
*415 wbs_sel_i[2]
*416 wbs_sel_i[3]
*417 wbs_stb_i
*418 wbs_we_i
*419 mprj

*PORTS
io_in[0] I
io_in[10] I
io_in[11] I
io_in[12] I
io_in[13] I
io_in[14] I
io_in[15] I
io_in[16] I
io_in[17] I
io_in[18] I
io_in[19] I
io_in[1] I
io_in[20] I
io_in[21] I
io_in[22] I
io_in[23] I
io_in[24] I
io_in[25] I
io_in[26] I
io_in[27] I
io_in[28] I
io_in[29] I
io_in[2] I
io_in[30] I
io_in[31] I
io_in[32] I
io_in[33] I
io_in[34] I
io_in[35] I
io_in[36] I
io_in[37] I
io_in[3] I
io_in[4] I
io_in[5] I
io_in[6] I
io_in[7] I
io_in[8] I
io_in[9] I
io_oeb[0] O
io_oeb[10] O
io_oeb[11] O
io_oeb[12] O
io_oeb[13] O
io_oeb[14] O
io_oeb[15] O
io_oeb[16] O
io_oeb[17] O
io_oeb[18] O
io_oeb[19] O
io_oeb[1] O
io_oeb[20] O
io_oeb[21] O
io_oeb[22] O
io_oeb[23] O
io_oeb[24] O
io_oeb[25] O
io_oeb[26] O
io_oeb[27] O
io_oeb[28] O
io_oeb[29] O
io_oeb[2] O
io_oeb[30] O
io_oeb[31] O
io_oeb[32] O
io_oeb[33] O
io_oeb[34] O
io_oeb[35] O
io_oeb[36] O
io_oeb[37] O
io_oeb[3] O
io_oeb[4] O
io_oeb[5] O
io_oeb[6] O
io_oeb[7] O
io_oeb[8] O
io_oeb[9] O
io_out[0] O
io_out[10] O
io_out[11] O
io_out[12] O
io_out[13] O
io_out[14] O
io_out[15] O
io_out[16] O
io_out[17] O
io_out[18] O
io_out[19] O
io_out[1] O
io_out[20] O
io_out[21] O
io_out[22] O
io_out[23] O
io_out[24] O
io_out[25] O
io_out[26] O
io_out[27] O
io_out[28] O
io_out[29] O
io_out[2] O
io_out[30] O
io_out[31] O
io_out[32] O
io_out[33] O
io_out[34] O
io_out[35] O
io_out[36] O
io_out[37] O
io_out[3] O
io_out[4] O
io_out[5] O
io_out[6] O
io_out[7] O
io_out[8] O
io_out[9] O
la_data_in[0] I
la_data_in[10] I
la_data_in[11] I
la_data_in[12] I
la_data_in[13] I
la_data_in[14] I
la_data_in[15] I
la_data_in[16] I
la_data_in[17] I
la_data_in[18] I
la_data_in[19] I
la_data_in[1] I
la_data_in[20] I
la_data_in[21] I
la_data_in[22] I
la_data_in[23] I
la_data_in[24] I
la_data_in[25] I
la_data_in[26] I
la_data_in[27] I
la_data_in[28] I
la_data_in[29] I
la_data_in[2] I
la_data_in[30] I
la_data_in[31] I
la_data_in[32] I
la_data_in[33] I
la_data_in[34] I
la_data_in[35] I
la_data_in[36] I
la_data_in[37] I
la_data_in[38] I
la_data_in[39] I
la_data_in[3] I
la_data_in[40] I
la_data_in[41] I
la_data_in[42] I
la_data_in[43] I
la_data_in[44] I
la_data_in[45] I
la_data_in[46] I
la_data_in[47] I
la_data_in[48] I
la_data_in[49] I
la_data_in[4] I
la_data_in[50] I
la_data_in[51] I
la_data_in[52] I
la_data_in[53] I
la_data_in[54] I
la_data_in[55] I
la_data_in[56] I
la_data_in[57] I
la_data_in[58] I
la_data_in[59] I
la_data_in[5] I
la_data_in[60] I
la_data_in[61] I
la_data_in[62] I
la_data_in[63] I
la_data_in[6] I
la_data_in[7] I
la_data_in[8] I
la_data_in[9] I
la_data_out[0] O
la_data_out[10] O
la_data_out[11] O
la_data_out[12] O
la_data_out[13] O
la_data_out[14] O
la_data_out[15] O
la_data_out[16] O
la_data_out[17] O
la_data_out[18] O
la_data_out[19] O
la_data_out[1] O
la_data_out[20] O
la_data_out[21] O
la_data_out[22] O
la_data_out[23] O
la_data_out[24] O
la_data_out[25] O
la_data_out[26] O
la_data_out[27] O
la_data_out[28] O
la_data_out[29] O
la_data_out[2] O
la_data_out[30] O
la_data_out[31] O
la_data_out[32] O
la_data_out[33] O
la_data_out[34] O
la_data_out[35] O
la_data_out[36] O
la_data_out[37] O
la_data_out[38] O
la_data_out[39] O
la_data_out[3] O
la_data_out[40] O
la_data_out[41] O
la_data_out[42] O
la_data_out[43] O
la_data_out[44] O
la_data_out[45] O
la_data_out[46] O
la_data_out[47] O
la_data_out[48] O
la_data_out[49] O
la_data_out[4] O
la_data_out[50] O
la_data_out[51] O
la_data_out[52] O
la_data_out[53] O
la_data_out[54] O
la_data_out[55] O
la_data_out[56] O
la_data_out[57] O
la_data_out[58] O
la_data_out[59] O
la_data_out[5] O
la_data_out[60] O
la_data_out[61] O
la_data_out[62] O
la_data_out[63] O
la_data_out[6] O
la_data_out[7] O
la_data_out[8] O
la_data_out[9] O
la_oenb[0] I
la_oenb[10] I
la_oenb[11] I
la_oenb[12] I
la_oenb[13] I
la_oenb[14] I
la_oenb[15] I
la_oenb[16] I
la_oenb[17] I
la_oenb[18] I
la_oenb[19] I
la_oenb[1] I
la_oenb[20] I
la_oenb[21] I
la_oenb[22] I
la_oenb[23] I
la_oenb[24] I
la_oenb[25] I
la_oenb[26] I
la_oenb[27] I
la_oenb[28] I
la_oenb[29] I
la_oenb[2] I
la_oenb[30] I
la_oenb[31] I
la_oenb[32] I
la_oenb[33] I
la_oenb[34] I
la_oenb[35] I
la_oenb[36] I
la_oenb[37] I
la_oenb[38] I
la_oenb[39] I
la_oenb[3] I
la_oenb[40] I
la_oenb[41] I
la_oenb[42] I
la_oenb[43] I
la_oenb[44] I
la_oenb[45] I
la_oenb[46] I
la_oenb[47] I
la_oenb[48] I
la_oenb[49] I
la_oenb[4] I
la_oenb[50] I
la_oenb[51] I
la_oenb[52] I
la_oenb[53] I
la_oenb[54] I
la_oenb[55] I
la_oenb[56] I
la_oenb[57] I
la_oenb[58] I
la_oenb[59] I
la_oenb[5] I
la_oenb[60] I
la_oenb[61] I
la_oenb[62] I
la_oenb[63] I
la_oenb[6] I
la_oenb[7] I
la_oenb[8] I
la_oenb[9] I
user_clock2 I
user_irq[0] O
user_irq[1] O
user_irq[2] O
wb_clk_i I
wb_rst_i I
wbs_ack_o O
wbs_adr_i[0] I
wbs_adr_i[10] I
wbs_adr_i[11] I
wbs_adr_i[12] I
wbs_adr_i[13] I
wbs_adr_i[14] I
wbs_adr_i[15] I
wbs_adr_i[16] I
wbs_adr_i[17] I
wbs_adr_i[18] I
wbs_adr_i[19] I
wbs_adr_i[1] I
wbs_adr_i[20] I
wbs_adr_i[21] I
wbs_adr_i[22] I
wbs_adr_i[23] I
wbs_adr_i[24] I
wbs_adr_i[25] I
wbs_adr_i[26] I
wbs_adr_i[27] I
wbs_adr_i[28] I
wbs_adr_i[29] I
wbs_adr_i[2] I
wbs_adr_i[30] I
wbs_adr_i[31] I
wbs_adr_i[3] I
wbs_adr_i[4] I
wbs_adr_i[5] I
wbs_adr_i[6] I
wbs_adr_i[7] I
wbs_adr_i[8] I
wbs_adr_i[9] I
wbs_cyc_i I
wbs_dat_i[0] I
wbs_dat_i[10] I
wbs_dat_i[11] I
wbs_dat_i[12] I
wbs_dat_i[13] I
wbs_dat_i[14] I
wbs_dat_i[15] I
wbs_dat_i[16] I
wbs_dat_i[17] I
wbs_dat_i[18] I
wbs_dat_i[19] I
wbs_dat_i[1] I
wbs_dat_i[20] I
wbs_dat_i[21] I
wbs_dat_i[22] I
wbs_dat_i[23] I
wbs_dat_i[24] I
wbs_dat_i[25] I
wbs_dat_i[26] I
wbs_dat_i[27] I
wbs_dat_i[28] I
wbs_dat_i[29] I
wbs_dat_i[2] I
wbs_dat_i[30] I
wbs_dat_i[31] I
wbs_dat_i[3] I
wbs_dat_i[4] I
wbs_dat_i[5] I
wbs_dat_i[6] I
wbs_dat_i[7] I
wbs_dat_i[8] I
wbs_dat_i[9] I
wbs_dat_o[0] O
wbs_dat_o[10] O
wbs_dat_o[11] O
wbs_dat_o[12] O
wbs_dat_o[13] O
wbs_dat_o[14] O
wbs_dat_o[15] O
wbs_dat_o[16] O
wbs_dat_o[17] O
wbs_dat_o[18] O
wbs_dat_o[19] O
wbs_dat_o[1] O
wbs_dat_o[20] O
wbs_dat_o[21] O
wbs_dat_o[22] O
wbs_dat_o[23] O
wbs_dat_o[24] O
wbs_dat_o[25] O
wbs_dat_o[26] O
wbs_dat_o[27] O
wbs_dat_o[28] O
wbs_dat_o[29] O
wbs_dat_o[2] O
wbs_dat_o[30] O
wbs_dat_o[31] O
wbs_dat_o[3] O
wbs_dat_o[4] O
wbs_dat_o[5] O
wbs_dat_o[6] O
wbs_dat_o[7] O
wbs_dat_o[8] O
wbs_dat_o[9] O
wbs_sel_i[0] I
wbs_sel_i[1] I
wbs_sel_i[2] I
wbs_sel_i[3] I
wbs_stb_i I
wbs_we_i I

*D_NET *1 0.015196
*CONN
*P io_in[0] I
*I *419:io_in[0] I *D alpha_soc
*CAP
1 io_in[0] 0.00347512
2 *419:io_in[0] 0.00319426
3 *1:11 0.00666938
4 *419:io_in[0] io_out[0] 0.00185726
*RES
1 io_in[0] *1:11 33.738 
2 *1:11 *419:io_in[0] 25.27 
*END

*D_NET *2 0.150391
*CONN
*P io_in[10] I
*I *419:io_in[10] I *D alpha_soc
*CAP
1 io_in[10] 0.00401715
2 *419:io_in[10] 0.000730761
3 *2:9 0.00887271
4 *2:7 0.0121591
5 *2:9 *36:9 0.00301313
6 *2:9 *37:9 0.0426906
7 *2:9 *40:9 0.0789078
*RES
1 io_in[10] *2:7 31.594 
2 *2:7 *2:9 210.14 
3 *2:9 *419:io_in[10] 9.706 
*END

*D_NET *3 0.192046
*CONN
*P io_in[11] I
*I *419:io_in[11] I *D alpha_soc
*CAP
1 io_in[11] 0.000943624
2 *419:io_in[11] 0.00374241
3 *3:9 0.00712427
4 *3:7 0.00432548
5 *419:io_in[11] io_oeb[6] 0.000103415
6 *3:9 *78:9 0.0820686
7 *3:9 *79:9 0.0926427
8 *3:9 *112:9 0.00109504
*RES
1 io_in[11] *3:7 10.77 
2 *3:7 *3:9 232.94 
3 *3:9 *419:io_in[11] 30.53 
*END

*D_NET *4 0.195013
*CONN
*P io_in[12] I
*I *419:io_in[12] I *D alpha_soc
*CAP
1 io_in[12] 0.00400371
2 *419:io_in[12] 0.000675816
3 *4:9 0.00833114
4 *4:7 0.011659
5 *4:9 *5:9 0.0936538
6 *4:9 *40:9 0.0766896
*RES
1 io_in[12] *4:7 31.898 
2 *4:7 *4:9 255.74 
3 *4:9 *419:io_in[12] 9.402 
*END

*D_NET *5 0.149314
*CONN
*P io_in[13] I
*I *419:io_in[13] I *D alpha_soc
*CAP
1 io_in[13] 0.00399698
2 *419:io_in[13] 0.000655179
3 *5:9 0.0238333
4 *5:7 0.0271751
5 *4:9 *5:9 0.0936538
*RES
1 io_in[13] *5:7 32.05 
2 *5:7 *5:9 278.54 
3 *5:9 *419:io_in[13] 9.25 
*END

*D_NET *6 0.239424
*CONN
*P io_in[14] I
*I *419:io_in[14] I *D alpha_soc
*CAP
1 io_in[14] 0.00122247
2 *419:io_in[14] 0.00369438
3 *6:9 0.0100638
4 *6:7 0.00759191
5 *6:9 *42:9 0.0956323
6 *6:9 *82:9 0.121219
*RES
1 io_in[14] *6:7 11.378 
2 *6:7 *6:9 301.34 
3 *6:9 *419:io_in[14] 29.922 
*END

*D_NET *7 0.102144
*CONN
*P io_in[15] I
*I *419:io_in[15] I *D alpha_soc
*CAP
1 io_in[15] 0.00545275
2 *419:io_in[15] 0.0448108
3 *7:11 0.0448108
4 *7:9 0.00545275
5 *7:9 io_out[15] 0.00161701
*RES
1 io_in[15] *7:9 45.502 
2 *7:9 *7:11 4.5 
3 *7:11 *419:io_in[15] 307.534 
*END

*D_NET *8 0.0996093
*CONN
*P io_in[16] I
*I *419:io_in[16] I *D alpha_soc
*CAP
1 io_in[16] 0.00453226
2 *419:io_in[16] 0.00117731
3 *8:13 0.0452668
4 *8:11 0.0486217
5 *8:11 io_oeb[15] 1.11891e-05
*RES
1 io_in[16] *8:11 41.186 
2 *8:11 *8:13 302.556 
3 *8:13 *419:io_in[16] 17.018 
*END

*D_NET *9 0.0983713
*CONN
*P io_in[17] I
*I *419:io_in[17] I *D alpha_soc
*CAP
1 io_in[17] 0.00385152
2 *419:io_in[17] 0.00128838
3 *9:13 0.0453341
4 *9:11 0.0478973
*RES
1 io_in[17] *9:11 36.018 
2 *9:11 *9:13 302.252 
3 *9:13 *419:io_in[17] 16.562 
*END

*D_NET *10 0.0968436
*CONN
*P io_in[18] I
*I *419:io_in[18] I *D alpha_soc
*CAP
1 io_in[18] 0.00309489
2 *419:io_in[18] 0.00128117
3 *10:13 0.0453269
4 *10:11 0.0471406
*RES
1 io_in[18] *10:11 30.546 
2 *10:11 *10:13 302.252 
3 *10:13 *419:io_in[18] 16.106 
*END

*D_NET *11 0.09482
*CONN
*P io_in[19] I
*I *419:io_in[19] I *D alpha_soc
*CAP
1 io_in[19] 0.00259913
2 *419:io_in[19] 0.0448108
3 *11:11 0.04741
*RES
1 io_in[19] *11:11 26.29 
2 *11:11 *419:io_in[19] 307.534 
*END

*D_NET *12 0.0106832
*CONN
*P io_in[1] I
*I *419:io_in[1] I *D alpha_soc
*CAP
1 io_in[1] 0.00534162
2 *419:io_in[1] 0.00534162
*RES
1 io_in[1] *419:io_in[1] 46.24 
*END

*D_NET *13 0.0931788
*CONN
*P io_in[20] I
*I *419:io_in[20] I *D alpha_soc
*CAP
1 io_in[20] 0.00105994
2 *419:io_in[20] 0.00133499
3 *13:13 0.0455295
4 *13:11 0.0452544
*RES
1 io_in[20] *13:11 16.258 
2 *13:11 *13:13 303.316 
3 *13:13 *419:io_in[20] 17.474 
*END

*D_NET *14 0.0921802
*CONN
*P io_in[21] I
*I *419:io_in[21] I *D alpha_soc
*CAP
1 io_in[21] 0.0451897
2 *419:io_in[21] 0.000900406
3 *14:5 0.0460901
*RES
1 io_in[21] *14:5 310.27 
2 *14:5 *419:io_in[21] 15.042 
*END

*D_NET *15 0.09379
*CONN
*P io_in[22] I
*I *419:io_in[22] I *D alpha_soc
*CAP
1 io_in[22] 0.0450366
2 *419:io_in[22] 0.00185834
3 *15:5 0.046895
*RES
1 io_in[22] *15:5 309.206 
2 *15:5 *419:io_in[22] 22.034 
*END

*D_NET *16 0.0953997
*CONN
*P io_in[23] I
*I *419:io_in[23] I *D alpha_soc
*CAP
1 io_in[23] 0.0451897
2 *419:io_in[23] 0.00251012
3 *16:5 0.0476998
*RES
1 io_in[23] *16:5 310.27 
2 *16:5 *419:io_in[23] 26.898 
*END

*D_NET *17 0.163536
*CONN
*P io_in[24] I
*I *419:io_in[24] I *D alpha_soc
*CAP
1 io_in[24] 0.00587042
2 *419:io_in[24] 0.00200865
3 *17:13 0.0214328
4 *17:11 0.0252945
5 *17:13 *19:9 0
6 *17:13 *55:17 0.104177
7 *17:13 *56:17 0.00475308
*RES
1 io_in[24] *17:11 46.4439 
2 *17:11 *17:13 273.722 
3 *17:13 *419:io_in[24] 16.394 
*END

*D_NET *18 0.100755
*CONN
*P io_in[25] I
*I *419:io_in[25] I *D alpha_soc
*CAP
1 io_in[25] 0.00488303
2 *419:io_in[25] 0.000221783
3 *18:17 0.0372668
4 *18:15 0.041928
5 *18:15 *55:17 0
6 *18:17 io_oeb[23] 0.0164557
*RES
1 io_in[25] *18:15 46.978 
2 *18:15 *18:17 268.508 
3 *18:17 *419:io_in[25] 6.058 
*END

*D_NET *19 0.0781721
*CONN
*P io_in[26] I
*I *419:io_in[26] I *D alpha_soc
*CAP
1 io_in[26] 0.000407531
2 *419:io_in[26] 0.0021185
3 *19:9 0.0386785
4 *19:7 0.0369676
5 *19:9 *56:17 0
6 *17:13 *19:9 0
*RES
1 io_in[26] *19:7 7.426 
2 *19:7 *19:9 263.796 
3 *19:9 *419:io_in[26] 17.458 
*END

*D_NET *20 0.172847
*CONN
*P io_in[27] I
*I *419:io_in[27] I *D alpha_soc
*CAP
1 io_in[27] 0.00082785
2 *419:io_in[27] 0.00156727
3 *20:19 0.00427562
4 *20:9 0.00737676
5 *20:7 0.00549626
6 *20:9 *56:17 0.00408282
7 *20:9 *57:17 0.00401385
8 *20:9 *94:17 0.0558666
9 *20:9 *96:17 0.0801426
10 *20:19 io_oeb[30] 0
11 *20:19 *24:9 0.00177534
12 *20:19 *57:9 0.00332814
13 *20:19 *96:15 0.00409411
*RES
1 io_in[27] *20:7 9.098 
2 *20:7 *20:9 211.812 
3 *20:9 *20:19 43.444 
4 *20:19 *419:io_in[27] 9.766 
*END

*D_NET *21 0.174793
*CONN
*P io_in[28] I
*I *419:io_in[28] I *D alpha_soc
*CAP
1 io_in[28] 0.000990849
2 *419:io_in[28] 0.00174037
3 *21:9 0.00493932
4 *21:7 0.0041898
5 *21:9 *25:9 0.00119047
6 *21:9 *58:9 0.0853775
7 *21:9 *59:9 0.0740316
8 *21:9 *63:9 0.00233257
*RES
1 io_in[28] *21:7 9.858 
2 *21:7 *21:9 216.372 
3 *21:9 *419:io_in[28] 15.026 
*END

*D_NET *22 0.159035
*CONN
*P io_in[29] I
*I *419:io_in[29] I *D alpha_soc
*CAP
1 io_in[29] 0.000929488
2 *419:io_in[29] 0.00167173
3 *22:9 0.00360425
4 *22:7 0.00286201
5 *419:io_in[29] io_out[32] 0
6 *22:7 *55:15 0
7 *22:9 *26:9 0.00234998
8 *22:9 *59:9 0.0754422
9 *22:9 *98:9 0.0721751
*RES
1 io_in[29] *22:7 10.162 
2 *22:7 *22:9 192.66 
3 *22:9 *419:io_in[29] 14.722 
*END

*D_NET *23 0.0216607
*CONN
*P io_in[2] I
*I *419:io_in[2] I *D alpha_soc
*CAP
1 io_in[2] 0.00395597
2 *419:io_in[2] 0.00336051
3 *23:7 0.00731649
4 *419:io_in[2] *50:11 0.00412806
5 *419:io_in[2] *61:11 0.00289972
*RES
1 io_in[2] *23:7 32.05 
2 *23:7 *419:io_in[2] 36.99 
*END

*D_NET *24 0.135085
*CONN
*P io_in[30] I
*I *419:io_in[30] I *D alpha_soc
*CAP
1 io_in[30] 0.000983188
2 *419:io_in[30] 0.00158245
3 *24:9 0.00517588
4 *24:7 0.00457662
5 *24:7 *57:15 0
6 *24:9 *26:9 0.00103995
7 *24:9 *60:9 0.0655864
8 *24:9 *62:9 0.054365
9 *20:19 *24:9 0.00177534
*RES
1 io_in[30] *24:7 10.618 
2 *24:7 *24:9 168.948 
3 *24:9 *419:io_in[30] 14.266 
*END

*D_NET *25 0.0853837
*CONN
*P io_in[31] I
*I *419:io_in[31] I *D alpha_soc
*CAP
1 io_in[31] 0.000678858
2 *419:io_in[31] 0.00201174
3 *25:9 0.0122702
4 *25:7 0.0109373
5 *25:7 *96:15 0.000143293
6 *25:9 *58:9 0.0136694
7 *25:9 *63:9 0.044449
8 *25:9 *96:17 3.35254e-05
9 *21:9 *25:9 0.00119047
*RES
1 io_in[31] *25:7 9.554 
2 *25:7 *25:9 145.236 
3 *25:9 *419:io_in[31] 15.33 
*END

*D_NET *26 0.0935294
*CONN
*P io_in[32] I
*I *419:io_in[32] I *D alpha_soc
*CAP
1 io_in[32] 0.000765094
2 *419:io_in[32] 0.00168562
3 *26:9 0.00327595
4 *26:7 0.00235542
5 *26:9 *27:9 0.0266787
6 *26:9 *28:9 0.00278164
7 *26:9 *59:9 0.00374057
8 *26:9 *60:9 0.0012
9 *26:9 *62:9 0.000110827
10 *26:9 *63:9 0.0458983
11 *26:9 *98:9 0.00164732
12 *22:9 *26:9 0.00234998
13 *24:9 *26:9 0.00103995
*RES
1 io_in[32] *26:7 9.858 
2 *26:7 *26:9 121.524 
3 *26:9 *419:io_in[32] 15.026 
*END

*D_NET *27 0.0752229
*CONN
*P io_in[33] I
*I *419:io_in[33] I *D alpha_soc
*CAP
1 io_in[33] 0.000799414
2 *419:io_in[33] 0.00163762
3 *27:9 0.00254675
4 *27:7 0.00170855
5 *27:9 *28:9 0.00659685
6 *27:9 *62:9 0.00170681
7 *27:9 *66:9 0.000858186
8 *27:9 *103:9 0.0326901
9 *26:9 *27:9 0.0266787
*RES
1 io_in[33] *27:7 10.01 
2 *27:7 *27:9 97.812 
3 *27:9 *419:io_in[33] 14.874 
*END

*D_NET *28 0.0397394
*CONN
*P io_in[34] I
*I *419:io_in[34] I *D alpha_soc
*CAP
1 io_in[34] 0.000717091
2 *419:io_in[34] 0.00167891
3 *28:9 0.00701305
4 *28:7 0.00605123
5 *28:9 *66:9 0.0149006
6 *26:9 *28:9 0.00278164
7 *27:9 *28:9 0.00659685
*RES
1 io_in[34] *28:7 9.706 
2 *28:7 *28:9 74.1 
3 *28:9 *419:io_in[34] 15.178 
*END

*D_NET *29 0.0305809
*CONN
*P io_in[35] I
*I *419:io_in[35] I *D alpha_soc
*CAP
1 io_in[35] 0.000785731
2 *419:io_in[35] 0.00161027
3 *29:9 0.00517759
4 *29:7 0.00435305
5 *29:9 *66:9 0.0162344
6 *29:9 *105:11 0.0024198
*RES
1 io_in[35] *29:7 10.01 
2 *29:7 *29:9 50.388 
3 *29:9 *419:io_in[35] 14.874 
*END

*D_NET *30 0.0174615
*CONN
*P io_in[36] I
*I *419:io_in[36] I *D alpha_soc
*CAP
1 io_in[36] 0.00676352
2 *419:io_in[36] 0.000421201
3 *30:11 0.00718472
4 *30:11 io_out[36] 0.00309207
*RES
1 io_in[36] *30:11 48.634 
2 *30:11 *419:io_in[36] 2.926 
*END

*D_NET *31 0.00588883
*CONN
*P io_in[37] I
*I *419:io_in[37] I *D alpha_soc
*CAP
1 io_in[37] 0.00294441
2 *419:io_in[37] 0.00294441
*RES
1 io_in[37] *419:io_in[37] 27.848 
*END

*D_NET *32 0.0349029
*CONN
*P io_in[3] I
*I *419:io_in[3] I *D alpha_soc
*CAP
1 io_in[3] 0.00387341
2 *419:io_in[3] 0.000751399
3 *32:9 0.00445459
4 *32:7 0.0075766
5 *32:9 *61:11 0.00151262
6 *32:9 *108:9 0.0167343
*RES
1 io_in[3] *32:7 31.442 
2 *32:7 *32:9 50.54 
3 *32:9 *419:io_in[3] 9.858 
*END

*D_NET *33 0.0300951
*CONN
*P io_in[4] I
*I *419:io_in[4] I *D alpha_soc
*CAP
1 io_in[4] 0.00106048
2 *419:io_in[4] 0.00359169
3 *33:9 0.0131234
4 *33:7 0.0105922
5 *419:io_in[4] io_oeb[2] 0
6 *33:9 *35:9 0.00172737
*RES
1 io_in[4] *33:7 11.53 
2 *33:7 *33:9 73.34 
3 *33:9 *419:io_in[4] 29.77 
*END

*D_NET *34 0.0744591
*CONN
*P io_in[5] I
*I *419:io_in[5] I *D alpha_soc
*CAP
1 io_in[5] 0.00401737
2 *419:io_in[5] 0.000689499
3 *34:9 0.00457949
4 *34:7 0.00790736
5 *34:9 *36:9 0.0141831
6 *34:9 *37:9 0.000463049
7 *34:9 *70:9 0.0101357
8 *34:9 *71:9 0.0324836
*RES
1 io_in[5] *34:7 31.898 
2 *34:7 *34:9 96.14 
3 *34:9 *419:io_in[5] 9.402 
*END

*D_NET *35 0.0708501
*CONN
*P io_in[6] I
*I *419:io_in[6] I *D alpha_soc
*CAP
1 io_in[6] 0.000998569
2 *419:io_in[6] 0.00368093
3 *35:9 0.0117544
4 *35:7 0.009072
5 *35:9 *38:9 0.00271194
6 *35:9 *73:9 0.040905
7 *33:9 *35:9 0.00172737
*RES
1 io_in[6] *35:7 11.074 
2 *35:7 *35:9 118.94 
3 *35:9 *419:io_in[6] 30.226 
*END

*D_NET *36 0.0625718
*CONN
*P io_in[7] I
*I *419:io_in[7] I *D alpha_soc
*CAP
1 io_in[7] 0.00410641
2 *419:io_in[7] 0.000655179
3 *36:9 0.0125277
4 *36:7 0.0159789
5 *36:9 *37:9 0.00624424
6 *36:9 *40:9 0.00586312
7 *2:9 *36:9 0.00301313
8 *34:9 *36:9 0.0141831
*RES
1 io_in[7] *36:7 32.05 
2 *36:7 *36:9 141.74 
3 *36:9 *419:io_in[7] 9.25 
*END

*D_NET *37 0.0852307
*CONN
*P io_in[8] I
*I *419:io_in[8] I *D alpha_soc
*CAP
1 io_in[8] 0.00376816
2 *419:io_in[8] 0.000765081
3 *37:9 0.013901
4 *37:7 0.016904
5 *37:7 *81:7 0.000494562
6 *2:9 *37:9 0.0426906
7 *34:9 *37:9 0.000463049
8 *36:9 *37:9 0.00624424
*RES
1 io_in[8] *37:7 31.442 
2 *37:7 *37:9 164.54 
3 *37:9 *419:io_in[8] 9.858 
*END

*D_NET *38 0.104882
*CONN
*P io_in[9] I
*I *419:io_in[9] I *D alpha_soc
*CAP
1 io_in[9] 0.00106805
2 *419:io_in[9] 0.00461099
3 *38:9 0.018921
4 *38:7 0.015378
5 *38:9 *73:9 0.0013817
6 *38:9 *78:9 0.06081
7 *35:9 *38:9 0.00271194
*RES
1 io_in[9] *38:7 10.466 
2 *38:7 *38:9 187.34 
3 *38:9 *419:io_in[9] 30.834 
*END

*D_NET *39 0.00985861
*CONN
*P io_oeb[0] O
*I *419:io_oeb[0] O *D alpha_soc
*CAP
1 io_oeb[0] 0.00492931
2 *419:io_oeb[0] 0.00492931
*RES
1 *419:io_oeb[0] io_oeb[0] 43.808 
*END

*D_NET *40 0.178995
*CONN
*P io_oeb[10] O
*I *419:io_oeb[10] O *D alpha_soc
*CAP
1 io_oeb[10] 0.00402411
2 *419:io_oeb[10] 0.000710124
3 *40:9 0.00805705
4 *40:7 0.00474306
5 *2:9 *40:9 0.0789078
6 *4:9 *40:9 0.0766896
7 *36:9 *40:9 0.00586312
*RES
1 *419:io_oeb[10] *40:7 9.554 
2 *40:7 *40:9 225.492 
3 *40:9 io_oeb[10] 31.746 
*END

*D_NET *41 0.112435
*CONN
*P io_oeb[11] O
*I *419:io_oeb[11] O *D alpha_soc
*CAP
1 io_oeb[11] 0.00371479
2 *419:io_oeb[11] 0.00100577
3 *41:9 0.029701
4 *41:7 0.026992
5 *41:9 *114:9 0.051021
*RES
1 *419:io_oeb[11] *41:7 11.53 
2 *41:7 *41:9 248.14 
3 *41:9 io_oeb[11] 29.77 
*END

*D_NET *42 0.222903
*CONN
*P io_oeb[12] O
*I *419:io_oeb[12] O *D alpha_soc
*CAP
1 io_oeb[12] 0.00100554
2 *419:io_oeb[12] 0.00371501
3 *42:9 0.0033461
4 *42:7 0.00605558
5 *42:9 *80:9 0.105326
6 *42:9 *113:9 0.00782229
7 *6:9 *42:9 0.0956323
*RES
1 *419:io_oeb[12] *42:7 30.074 
2 *42:7 *42:9 270.94 
3 *42:9 io_oeb[12] 11.226 
*END

*D_NET *43 0.0906171
*CONN
*P io_oeb[13] O
*I *419:io_oeb[13] O *D alpha_soc
*CAP
1 io_oeb[13] 0.00304096
2 *419:io_oeb[13] 0.00166593
3 *43:9 0.0436426
4 *43:7 0.0422676
*RES
1 *419:io_oeb[13] *43:7 16.09 
2 *43:7 *43:9 293.74 
3 *43:9 io_oeb[13] 25.21 
*END

*D_NET *44 0.0968054
*CONN
*P io_oeb[14] O
*I *419:io_oeb[14] O *D alpha_soc
*CAP
1 io_oeb[14] 0.00269038
2 *419:io_oeb[14] 0.00198916
3 *44:9 0.0464135
4 *44:7 0.0457123
*RES
1 *419:io_oeb[14] *44:7 18.37 
2 *44:7 *44:9 316.54 
3 *44:9 io_oeb[14] 22.93 
*END

*D_NET *45 0.100793
*CONN
*P io_oeb[15] O
*I *419:io_oeb[15] O *D alpha_soc
*CAP
1 io_oeb[15] 0.00515836
2 *419:io_oeb[15] 0.0448108
3 *45:5 0.0499692
4 io_oeb[15] io_out[15] 0.000843856
5 *8:11 io_oeb[15] 1.11891e-05
*RES
1 *419:io_oeb[15] *45:5 307.534 
2 *45:5 io_oeb[15] 46.05 
*END

*D_NET *46 0.0986307
*CONN
*P io_oeb[16] O
*I *419:io_oeb[16] O *D alpha_soc
*CAP
1 io_oeb[16] 0.00450449
2 *419:io_oeb[16] 0.0448108
3 *46:5 0.0493153
*RES
1 *419:io_oeb[16] *46:5 307.534 
2 *46:5 io_oeb[16] 40.122 
*END

*D_NET *47 0.0968433
*CONN
*P io_oeb[17] O
*I *419:io_oeb[17] O *D alpha_soc
*CAP
1 io_oeb[17] 0.00361083
2 *419:io_oeb[17] 0.0448108
3 *47:5 0.0484217
*RES
1 *419:io_oeb[17] *47:5 307.534 
2 *47:5 io_oeb[17] 34.346 
*END

*D_NET *48 0.0950282
*CONN
*P io_oeb[18] O
*I *419:io_oeb[18] O *D alpha_soc
*CAP
1 io_oeb[18] 0.00270325
2 *419:io_oeb[18] 0.0448108
3 *48:5 0.0475141
*RES
1 *419:io_oeb[18] *48:5 307.534 
2 *48:5 io_oeb[18] 28.266 
*END

*D_NET *49 0.0934185
*CONN
*P io_oeb[19] O
*I *419:io_oeb[19] O *D alpha_soc
*CAP
1 io_oeb[19] 0.00174531
2 *419:io_oeb[19] 0.0449639
3 *49:5 0.0467092
*RES
1 *419:io_oeb[19] *49:5 308.598 
2 *49:5 io_oeb[19] 21.274 
*END

*D_NET *50 0.0182209
*CONN
*P io_oeb[1] O
*I *419:io_oeb[1] O *D alpha_soc
*CAP
1 io_oeb[1] 0.00304859
2 *419:io_oeb[1] 0.00295049
3 *50:11 0.00599908
4 io_oeb[1] *99:7 0.00209467
5 *419:io_in[2] *50:11 0.00412806
*RES
1 *419:io_oeb[1] *50:11 34.042 
2 *50:11 io_oeb[1] 27.398 
*END

*D_NET *51 0.0917141
*CONN
*P io_oeb[20] O
*I *419:io_oeb[20] O *D alpha_soc
*CAP
1 io_oeb[20] 0.0015527
2 *419:io_oeb[20] 0.0443044
3 *51:5 0.0458571
*RES
1 *419:io_oeb[20] *51:5 304.114 
2 *51:5 io_oeb[20] 10.83 
*END

*D_NET *52 0.0932534
*CONN
*P io_oeb[21] O
*I *419:io_oeb[21] O *D alpha_soc
*CAP
1 io_oeb[21] 0.0450366
2 *419:io_oeb[21] 0.00159006
3 *52:11 0.0466267
*RES
1 *419:io_oeb[21] *52:11 20.058 
2 *52:11 io_oeb[21] 309.206 
*END

*D_NET *53 0.0948218
*CONN
*P io_oeb[22] O
*I *419:io_oeb[22] O *D alpha_soc
*CAP
1 io_oeb[22] 0.0451897
2 *419:io_oeb[22] 0.0022212
3 *53:11 0.0474109
*RES
1 *419:io_oeb[22] *53:11 24.77 
2 *53:11 io_oeb[22] 310.27 
*END

*D_NET *54 0.112929
*CONN
*P io_oeb[23] O
*I *419:io_oeb[23] O *D alpha_soc
*CAP
1 io_oeb[23] 0.0451897
2 *419:io_oeb[23] 0.00304669
3 *54:11 0.0482364
4 *18:17 io_oeb[23] 0.0164557
*RES
1 *419:io_oeb[23] *54:11 30.85 
2 *54:11 io_oeb[23] 310.27 
*END

*D_NET *55 0.220497
*CONN
*P io_oeb[24] O
*I *419:io_oeb[24] O *D alpha_soc
*CAP
1 io_oeb[24] 0.000586312
2 *419:io_oeb[24] 0.00153463
3 *55:17 0.00389454
4 *55:15 0.00375131
5 *55:11 0.00511366
6 *55:7 0.00620521
7 *55:11 *94:9 0.01098
8 *55:17 *56:17 0.080204
9 *55:17 *94:17 0.00405038
10 *17:13 *55:17 0.104177
11 *18:15 *55:17 0
12 *22:7 *55:15 0
*RES
1 *419:io_oeb[24] *55:7 14.114 
2 *55:7 *55:11 49.872 
3 *55:11 *55:15 6.704 
4 *55:15 *55:17 250.116 